*SOIL-PLANT-ATMOSPHERE MODULE OUTPUT FILE

*RUN   1        : RAINFED LOW NITROGEN    
 MODEL          : SGCER    - Grain sorghum   
 EXPERIMENT     : GATI0301 SG    NIT X IRR, GA_TIFTON 2N*3I                     
 TREATMENT  1   : RAINFED LOW NITROGEN    

@YEAR DOY   DAS   SRAA   TMXA   TMNA   EOAA   ETAA   EPAA   ESAA   EFAD   ETAC   EPAC   ESAC   EFAC
 2003 056     0  15.80  22.20   9.00  3.406  2.534  0.000  2.534  0.000    2.5    0.0    2.5    0.0
 2003 057     1  10.00  21.00  10.20  2.144  0.375  0.000  0.375  0.000    2.9    0.0    2.9    0.0
 2003 058     2   3.60  14.00   7.60  0.683  0.683  0.000  0.683  0.000    3.6    0.0    3.6    0.0
 2003 059     3  14.10  15.30   6.00  2.686  2.538  0.000  2.538  0.000    6.1    0.0    6.1    0.0
 2003 060     4   1.50  11.90   9.30  0.281  0.281  0.000  0.281  0.000    6.4    0.0    6.4    0.0
 2003 061     5   7.20  15.10   9.40  1.413  1.413  0.000  1.413  0.000    7.8    0.0    7.8    0.0
 2003 062     6   7.60  11.80   6.40  1.378  1.378  0.000  1.378  0.000    9.2    0.0    9.2    0.0
 2003 063     7   3.10  12.90   8.80  0.586  0.586  0.000  0.586  0.000    9.8    0.0    9.8    0.0
 2003 064     8   8.90  24.00  12.90  2.029  2.029  0.000  2.028  0.000   11.8    0.0   11.8    0.0
 2003 065     9   3.60  23.50  14.70  0.828  0.828  0.000  0.827  0.000   12.6    0.0   12.6    0.0
 2003 066    10   9.80  19.10  12.60  2.093  2.093  0.001  2.092  0.000   14.7    0.0   14.7    0.0
 2003 067    11  13.20  18.90   9.60  2.737  2.737  0.002  2.736  0.000   17.5    0.0   17.5    0.0
 2003 068    12   7.00  20.50  14.00  1.541  1.541  0.001  1.540  0.000   19.0    0.0   19.0    0.0
 2003 069    13  21.60  25.30   9.40  4.860  3.502  0.004  3.498  0.000   22.5    0.0   22.5    0.0
 2003 070    14  16.90  22.60   8.30  3.639  2.017  0.004  2.012  0.000   24.5    0.0   24.5    0.0
 2003 071    15  17.50  25.90  10.40  4.000  1.308  0.005  1.303  0.000   25.8    0.0   25.8    0.0
 2003 072    16  16.10  27.10  16.00  3.904  3.904  0.007  3.897  0.000   29.7    0.0   29.7    0.0
 2003 073    17   9.00  22.50  13.20  2.018  1.632  0.004  1.628  0.000   31.4    0.0   31.3    0.0
 2003 074    18   7.00  14.60  11.10  1.386  1.386  0.003  1.383  0.000   32.8    0.0   32.7    0.0
 2003 075    19  17.50  21.90  11.60  3.842  2.010  0.009  2.001  0.000   34.8    0.0   34.7    0.0
 2003 076    20   7.80  20.70  14.30  1.726  1.726  0.005  1.721  0.000   36.5    0.0   36.5    0.0
 2003 077    21  12.50  25.00  16.00  2.956  2.609  0.008  2.600  0.000   39.1    0.1   39.1    0.0
 2003 078    22  10.30  26.30  16.40  2.481  2.481  0.008  2.474  0.000   41.6    0.1   41.5    0.0
 2003 079    23  10.50  26.60  18.90  2.588  2.588  0.009  2.579  0.000   44.2    0.1   44.1    0.0
 2003 080    24  21.20  25.30  15.10  4.996  4.205  0.018  4.187  0.000   48.4    0.1   48.3    0.0
 2003 081    25  23.50  24.50  11.10  5.308  2.529  0.020  2.509  0.000   50.9    0.1   50.8    0.0
 2003 082    26  19.30  22.30  11.60  4.258  1.411  0.017  1.394  0.000   52.3    0.1   52.2    0.0
 2003 083    27  24.20  23.90   9.30  5.344  1.108  0.021  1.087  0.000   53.4    0.1   53.3    0.0
 2003 084    28  23.30  24.80  11.30  5.292  0.943  0.021  0.923  0.000   54.4    0.2   54.2    0.0
 2003 085    29  20.90  25.00  13.40  4.841  0.835  0.019  0.816  0.000   55.2    0.2   55.0    0.0
 2003 086    30  14.50  22.80  16.60  3.356  1.052  0.013  1.039  0.000   56.3    0.2   56.1    0.0
 2003 087    31   9.30  23.30  15.00  2.137  0.689  0.008  0.681  0.000   57.0    0.2   56.7    0.0
 2003 088    32  20.70  25.80  12.50  4.806  1.458  0.018  1.440  0.000   58.4    0.2   58.2    0.0
 2003 089    33  16.40  14.50   5.40  3.067  2.815  0.012  2.803  0.000   61.2    0.2   61.0    0.0
 2003 090    34  26.30  13.70   0.50  4.618  3.158  0.017  3.141  0.000   64.4    0.3   64.1    0.0
 2003 091    35  25.40  20.50   4.10  5.118  1.462  0.018  1.444  0.000   65.8    0.3   65.6    0.0
 2003 092    36  21.70  22.60  13.10  4.867  1.126  0.017  1.110  0.000   67.0    0.3   66.7    0.0
 2003 093    37  24.10  24.50   9.40  5.367  0.954  0.018  0.936  0.000   67.9    0.3   67.6    0.0
 2003 094    38  22.50  26.00  11.00  5.174  0.842  0.017  0.825  0.000   68.8    0.3   68.4    0.0
 2003 095    39  12.70  26.20  15.50  3.035  1.050  0.010  1.040  0.000   69.8    0.3   69.5    0.0
 2003 096    40  16.60  26.90  18.70  4.099  0.783  0.013  0.769  0.000   70.6    0.3   70.3    0.0
 2003 097    41   8.10  27.10  17.60  1.988  1.297  0.006  1.291  0.000   71.9    0.4   71.5    0.0
 2003 098    42   3.60  18.80  15.70  0.787  0.787  0.002  0.784  0.000   72.7    0.4   72.3    0.0
 2003 099    43   7.80  18.80  10.80  1.632  1.632  0.005  1.627  0.000   74.3    0.4   74.0    0.0
 2003 100    44   5.60  10.90   6.20  0.999  0.999  0.004  0.995  0.000   75.3    0.4   74.9    0.0
 2003 101    45  18.60  19.30   7.00  3.786  3.028  0.014  3.014  0.000   78.3    0.4   78.0    0.0
 2003 102    46  27.50  24.20   7.80  6.018  2.572  0.028  2.543  0.000   80.9    0.4   80.5    0.0
 2003 103    47  26.30  26.80  10.50  6.079  1.443  0.044  1.399  0.000   82.4    0.5   81.9    0.0
 2003 104    48  26.70  29.70  12.60  6.493  1.160  0.071  1.089  0.000   83.5    0.5   83.0    0.0
 2003 105    49  25.20  26.50  15.30  6.025  1.024  0.100  0.924  0.000   84.5    0.6   83.9    0.0
 2003 106    50  23.20  25.90  13.90  5.443  0.950  0.134  0.817  0.000   85.5    0.8   84.7    0.0
 2003 107    51  22.20  26.70  15.40  5.314  0.928  0.188  0.740  0.000   86.4    0.9   85.5    0.0
 2003 108    52  21.70  28.50  17.70  5.392  0.924  0.243  0.681  0.000   87.3    1.2   86.2    0.0
 2003 109    53  18.30  25.50  16.90  4.361  0.883  0.248  0.635  0.000   88.2    1.4   86.8    0.0
 2003 110    54  23.20  27.30  17.40  5.660  0.989  0.392  0.597  0.000   89.2    1.8   87.4    0.0
 2003 111    55  11.90  25.20  17.00  2.819  0.814  0.249  0.565  0.000   90.0    2.1   88.0    0.0
 2003 112    56  28.20  23.40  13.80  6.363  1.176  0.639  0.538  0.000   91.2    2.7   88.5    0.0
 2003 113    57  28.30  23.00  10.80  6.185  1.250  0.736  0.514  0.000   92.5    3.5   89.0    0.0
 2003 114    58  21.10  23.50  11.40  4.656  1.132  0.639  0.493  0.000   93.6    4.1   89.5    0.0
 2003 115    59   6.20  19.50  16.80  1.358  1.358  0.214  1.145  0.000   94.9    4.3   90.6    0.0
 2003 116    60  26.30  24.80  15.50  6.079  5.253  1.014  4.239  0.000  100.2    5.3   94.9    0.0
 2003 117    61  25.40  26.40  12.80  5.841  3.609  1.136  2.474  0.000  103.8    6.5   97.4    0.0
 2003 118    62  28.10  27.50  15.40  6.664  2.858  1.469  1.390  0.000  106.7    7.9   98.7    0.0
 2003 119    63  24.60  28.80  15.60  5.913  2.565  1.480  1.085  0.000  109.2    9.4   99.8    0.0
 2003 120    64  26.30  28.70  17.10  6.367  5.021  1.790  3.231  0.000  114.3   11.2  103.1    0.0
 2003 121    65  24.90  30.50  19.50  6.240  4.273  1.951  2.322  0.000  118.5   13.1  105.4    0.0
 2003 122    66  27.40  30.40  16.00  6.661  5.947  2.316  3.631  0.000  124.5   15.5  109.0    0.0
 2003 123    67  13.80  25.80  15.60  3.163  3.163  1.195  1.968  0.000  127.6   16.7  111.0    0.0
 2003 124    68  26.10  29.90  16.30  6.289  4.315  2.530  1.785  0.000  132.0   19.2  112.8    0.0
 2003 125    69  23.70  29.50  20.40  5.844  3.754  2.515  1.239  0.000  135.7   21.7  114.0    0.0
 2003 126    70  22.50  31.10  22.30  5.705  3.636  2.627  1.009  0.000  139.3   24.3  115.0    0.0
 2003 127    71  21.90  30.80  22.20  5.515  3.413  2.699  0.714  0.000  142.8   27.0  115.7    0.0
 2003 128    72  23.50  30.60  20.90  5.835  3.195  3.021  0.174  0.000  145.9   30.0  115.9    0.0
 2003 129    73  27.10  31.40  20.70  6.760  3.781  3.671  0.110  0.000  149.7   33.7  116.0    0.0
 2003 130    74  26.80  31.60  21.10  6.702  3.864  3.802  0.062  0.000  153.6   37.5  116.1    0.0
 2003 131    75  25.70  32.80  21.10  6.494  3.875  3.834  0.040  0.000  157.5   41.4  116.1    0.0
 2003 132    76  28.00  27.10  17.20  6.445  4.279  3.946  0.333  0.000  161.7   45.3  116.4    0.0
 2003 133    77  28.00  27.20  12.90  6.231  4.229  3.906  0.322  0.000  166.0   49.2  116.8    0.0
 2003 134    78  18.50  28.70  14.60  4.240  2.192  2.176  0.016  0.000  168.2   51.4  116.8    0.0
 2003 135    79  17.90  28.50  19.60  4.249  2.069  2.057  0.012  0.000  170.2   53.4  116.8    0.0
 2003 136    80  19.20  31.80  20.80  4.764  2.872  1.960  0.913  0.000  173.1   55.4  117.7    0.0
 2003 137    81  26.40  31.30  21.20  6.532  2.521  1.941  0.580  0.000  175.6   57.3  118.3    0.0
 2003 138    82  21.90  31.10  20.00  5.363  1.970  1.966  0.004  0.000  177.6   59.3  118.3    0.0
 2003 139    83  16.00  28.00  19.50  3.774  3.774  2.435  1.339  0.000  181.4   61.7  119.6    0.0
 2003 140    84  15.80  25.00  17.00  3.527  3.366  2.166  1.201  0.000  184.7   63.9  120.8    0.0
 2003 141    85  20.40  27.60  18.30  4.735  1.936  1.227  0.709  0.000  186.7   65.1  121.5    0.0
 2003 142    86   3.90  22.00  18.20  0.848  0.568  0.561  0.007  0.000  187.2   65.7  121.6    0.0
 2003 143    87  14.20  24.70  18.00  3.182  3.182  2.115  1.066  0.000  190.4   67.8  122.6    0.0
 2003 144    88  26.70  29.10  15.80  6.184  6.147  4.166  1.981  0.000  196.6   72.0  124.6    0.0
 2003 145    89  25.30  30.30  17.80  6.023  4.045  2.134  1.911  0.000  200.6   74.1  126.5    0.0
 2003 146    90  21.70  29.50  20.00  5.199  2.286  1.577  0.709  0.000  202.9   75.7  127.2    0.0
 2003 147    91  18.70  26.90  17.40  4.272  1.074  1.047  0.027  0.000  204.0   76.7  127.2    0.0
 2003 148    92  29.70  27.40  14.10  6.659  0.963  0.948  0.015  0.000  204.9   77.7  127.3    0.0
 2003 149    93  27.00  29.30  15.30  6.255  0.859  0.850  0.010  0.000  205.8   78.5  127.3    0.0
 2003 150    94  28.30  28.80  13.90  6.458  0.846  0.839  0.007  0.000  206.6   79.4  127.3    0.0
 2003 151    95  27.20  32.10  18.30  6.665  0.824  0.820  0.004  0.000  207.5   80.2  127.3    0.0
 2003 152    96  27.30  29.60  17.50  6.480  0.848  0.845  0.002  0.000  208.3   81.0  127.3    0.0
 2003 153    97  28.00  31.40  16.20  6.724  0.956  0.956  0.001  0.000  209.3   82.0  127.3    0.0
 2003 154    98   7.30  25.60  19.80  1.690  0.920  0.920  0.000  0.000  210.2   82.9  127.3    0.0
 2003 155    99  20.90  30.80  20.50  5.152  5.152  3.001  2.151  0.000  215.3   85.9  129.4    0.0
 2003 156   100  26.80  30.70  20.50  6.600  5.837  3.844  1.993  0.000  221.2   89.8  131.4    0.0
 2003 157   101  10.50  29.10  21.40  2.558  2.558  1.490  1.068  0.000  223.7   91.2  132.5    0.0
 2003 158   102  13.50  28.90  21.60  3.286  3.286  1.914  1.372  0.000  227.0   93.2  133.9    0.0
 2003 159   103  20.00  30.90  22.50  5.006  4.822  2.916  1.905  0.000  231.9   96.1  135.8    0.0
 2003 160   104  27.00  32.20  22.70  6.862  6.862  3.997  2.865  0.000  238.7  100.1  138.6    0.0
 2003 161   105  24.90  33.30  21.50  6.348  5.259  3.698  1.562  0.000  244.0  103.8  140.2    0.0
 2003 162   106  25.00  32.60  22.50  6.371  4.871  3.711  1.159  0.000  248.8  107.5  141.4    0.0
 2003 163   107  23.80  33.50  21.60  6.084  5.784  3.544  2.240  0.000  254.6  111.0  143.6    0.0
 2003 164   108  19.00  32.10  21.30  4.776  4.618  2.782  1.835  0.000  259.2  113.8  145.4    0.0
 2003 165   109  19.70  31.00  21.60  4.905  4.905  2.857  2.048  0.000  264.1  116.7  147.5    0.0
 2003 166   110  27.50  33.50  20.90  6.996  6.033  4.075  1.958  0.000  270.2  120.7  149.4    0.0
 2003 167   111  22.20  34.10  20.80  5.679  5.679  3.308  2.371  0.000  275.9  124.1  151.8    0.0
 2003 168   112  21.40  31.20  20.80  5.310  5.310  3.093  2.217  0.000  281.2  127.1  154.0    0.0
 2003 169   113  11.20  27.50  22.20  2.697  2.697  1.571  1.126  0.000  283.9  128.7  155.2    0.0
 2003 170   114  18.80  31.30  22.00  4.709  4.709  2.743  1.966  0.000  288.6  131.5  157.1    0.0
 2003 171   115  13.40  29.10  21.70  3.271  3.271  1.906  1.366  0.000  291.8  133.4  158.5    0.0
 2003 172   116  29.40  30.50  20.30  7.214  6.076  4.202  1.874  0.000  297.9  137.6  160.4    0.0
 2003 173   117  29.70  31.40  17.70  7.222  6.394  4.207  2.188  0.000  304.3  141.8  162.5    0.0
 2003 174   118  27.90  32.30  20.40  6.984  5.410  4.068  1.342  0.000  309.7  145.8  163.9    0.0
 2003 175   119  26.70  31.80  20.20  6.639  4.929  3.867  1.062  0.000  314.7  149.7  164.9    0.0
 2003 176   120  27.70  31.30  19.90  6.836  4.889  3.982  0.907  0.000  319.5  153.7  165.9    0.0
 2003 177   121  28.10  32.50  21.00  7.079  4.929  4.124  0.805  0.000  324.5  157.8  166.7    0.0
 2003 178   122  28.40  32.30  20.80  7.129  4.876  4.144  0.731  0.000  329.4  162.0  167.4    0.0
 2003 179   123  16.30  29.90  21.10  3.997  2.842  2.328  0.514  0.000  332.2  164.3  167.9    0.0
 2003 180   124  14.10  28.80  20.70  3.406  2.169  1.984  0.185  0.000  334.4  166.3  168.1    0.0
 2003 181   125  17.70  30.90  21.00  4.384  4.384  2.554  1.830  0.000  338.7  168.8  169.9    0.0
 2003 182   126   8.20  27.40  21.40  1.960  1.960  1.142  0.818  0.000  340.7  170.0  170.7    0.0
 2003 183   127  16.00  28.10  22.50  3.886  3.886  2.264  1.622  0.000  344.6  172.2  172.4    0.0
 2003 184   128  22.70  29.70  21.80  5.582  5.582  3.249  2.334  0.000  350.2  175.5  174.7    0.0
 2003 185   129  18.90  29.80  22.30  4.671  4.669  2.700  1.969  0.000  354.8  178.2  176.7    0.0
 2003 186   130  27.10  31.70  22.60  6.852  5.884  3.934  1.950  0.000  360.7  182.1  178.6    0.0
 2003 187   131  18.00  31.70  21.60  4.521  4.521  2.576  1.945  0.000  365.2  184.7  180.6    0.0
 2003 188   132  17.80  31.90  23.00  4.526  4.406  2.561  1.845  0.000  369.7  187.3  182.4    0.0
 2003 189   133  28.60  33.10  22.30  7.332  5.373  4.115  1.257  0.000  375.0  191.4  183.7    0.0
 2003 190   134  25.70  33.10  23.10  6.628  4.710  3.690  1.019  0.000  379.7  195.1  184.7    0.0
 2003 191   135  26.40  32.60  23.60  6.800  4.635  3.755  0.880  0.000  384.4  198.8  185.6    0.0
 2003 192   136  22.70  32.30  23.20  5.815  3.970  3.184  0.786  0.000  388.3  202.0  186.3    0.0
 2003 193   137  24.50  32.20  22.60  6.246  4.108  3.391  0.717  0.000  392.4  205.4  187.1    0.0
 2003 194   138  17.90  29.10  21.80  4.392  3.024  2.361  0.663  0.000  395.5  207.7  187.7    0.0
 2003 195   139  15.60  28.50  20.90  3.779  2.454  2.018  0.436  0.000  397.9  209.8  188.2    0.0
 2003 196   140  24.20  31.30  21.30  6.064  3.434  3.214  0.220  0.000  401.4  213.0  188.4    0.0
 2003 197   141  25.50  34.20  22.10  6.626  3.667  3.482  0.185  0.000  405.0  216.5  188.6    0.0
 2003 198   142  15.80  31.90  22.00  4.008  2.227  2.086  0.140  0.000  407.3  218.5  188.7    0.0
 2003 199   143  25.30  32.20  21.80  6.432  6.330  3.318  3.012  0.000  413.6  221.9  191.7    0.0
 2003 200   144  19.90  31.20  22.10  5.019  4.776  2.565  2.211  0.000  418.4  224.4  193.9    0.0
 2003 201   145  26.70  32.30  21.10  6.768  6.581  3.426  3.155  0.000  424.9  227.9  197.1    0.0
 2003 202   146  22.30  31.80  22.50  5.678  4.319  2.875  1.444  0.000  429.3  230.7  198.5    0.0
