*PLANT N OUTPUT FILE

*RUN   1        : RAINFED LOW NITROGEN    
 MODEL          : SGCER    - Grain sorghum   
 EXPERIMENT     : GATI0301 SG    NIT X IRR, GA_TIFTON 2N*3I                     
 TREATMENT  1   : RAINFED LOW NITROGEN    

@YEAR DOY   DAS   DAP   CNAD   GNAD   VNAD   GN%D   VN%D   NUPC   LNAD   SNAD   LN%D   SN%D   RN%D   SNN0C   SNN1C
 2003 057     1     0    0.0    0.0    0.0   0.00   0.00    0.0    0.0    0.0    0.0   0.00   0.00    0.00    0.00
 2003 058     2     1    0.0    0.0    0.0   0.00   0.00    0.0    0.0    0.0    0.0   0.00   0.00    0.00    0.00
 2003 059     3     2    0.1    0.0    0.1   0.00   5.15    0.0    0.0    0.0    5.1   5.15   2.36    0.00    0.00
 2003 060     4     3    0.1    0.0    0.1   0.00   5.13    0.0    0.0    0.0    5.1   5.13   2.38    0.00    0.00
 2003 061     5     4    0.1    0.0    0.1   0.00   5.08    0.0    0.0    0.0    5.1   5.08   2.38    0.00    0.00
 2003 062     6     5    0.1    0.0    0.1   0.00   5.08    0.0    0.0    0.0    5.1   5.08   2.38    0.00    0.00
 2003 063     7     6    0.1    0.0    0.1   0.00   5.05    0.0    0.0    0.0    5.1   5.05   2.39    0.00    0.00
 2003 064     8     7    0.1    0.0    0.1   0.00   4.81    0.0    0.0    0.0    4.8   4.81   2.39    0.00    0.00
 2003 065     9     8    0.1    0.0    0.1   0.00   4.51    0.0    0.0    0.0    4.5   4.51   2.39    0.00    0.00
 2003 066    10     9    0.1    0.0    0.1   0.00   4.27    0.0    0.0    0.0    4.3   4.27   2.36    0.00    0.00
 2003 067    11    10    0.1    0.0    0.1   0.00   4.08    0.0    0.0    0.0    4.1   4.08   2.32    0.00    0.00
 2003 068    12    11    0.1    0.0    0.1   0.00   3.79    0.0    0.0    0.0    3.8   3.79   2.29    0.00    0.00
 2003 069    13    12    0.1    0.0    0.1   0.00   3.47    0.0    0.0    0.0    3.5   3.47   2.00    0.00    0.00
 2003 070    14    13    0.1    0.0    0.1   0.00   3.24    0.0    0.0    0.0    3.2   3.24   1.78    0.00    0.00
 2003 071    15    14    0.1    0.0    0.1   0.00   2.95    0.0    0.0    0.0    2.9   2.95   1.64    0.00    0.00
 2003 072    16    15    0.1    0.0    0.1   0.00   2.62    0.0    0.0    0.0    2.6   2.62   1.56    0.00    0.00
 2003 073    17    16    0.1    0.0    0.1   0.00   2.44    0.0    0.0    0.0    2.4   2.44   1.52    0.00    0.00
 2003 074    18    17    0.1    0.0    0.1   0.00   2.36    0.0    0.0    0.0    2.4   2.36   1.49    0.00    0.00
 2003 075    19    18    0.1    0.0    0.1   0.00   2.22    0.0    0.0    0.0    2.2   2.22   1.35    0.00    0.00
 2003 076    20    19    0.1    0.0    0.1   0.00   2.09    0.0    0.0    0.0    2.1   2.09   1.33    0.00    0.00
 2003 077    21    20    0.1    0.0    0.1   0.00   1.94    0.0    0.0    0.0    1.9   1.94   1.29    0.00    0.00
 2003 078    22    21    0.1    0.0    0.1   0.00   1.81    0.0    0.0    0.0    1.8   1.81   1.26    0.00    0.00
 2003 079    23    22    0.1    0.0    0.1   0.00   1.70    0.0    0.1    0.0    1.7   1.70   1.24    0.00    0.00
 2003 080    24    23    0.1    0.0    0.1   0.00   1.62    0.0    0.1    0.0    1.6   1.62   1.13    0.00    0.00
 2003 081    25    24    0.1    0.0    0.1   0.00   1.57    0.0    0.1    0.0    1.6   1.57   1.00    0.00    0.00
 2003 082    26    25    0.1    0.0    0.1   0.00   1.53    0.0    0.1    0.0    1.5   1.53   0.93    0.00    0.00
 2003 083    27    26    0.1    0.0    0.1   0.00   1.50    0.0    0.1    0.0    1.5   1.50   0.84    0.00    0.00
 2003 084    28    27    0.1    0.0    0.1   0.00   1.46    0.0    0.1    0.0    1.5   1.46   0.77    0.00    0.00
 2003 085    29    28    0.1    0.0    0.1   0.00   1.43    0.0    0.1    0.0    1.4   1.43   0.73    0.00    0.00
 2003 086    30    29    0.1    0.0    0.1   0.00   1.41    0.0    0.1    0.0    1.4   1.41   0.71    0.00    0.00
 2003 087    31    30    0.1    0.0    0.1   0.00   1.39    0.0    0.1    0.0    1.4   1.39   0.70    0.00    0.00
 2003 088    32    31    0.1    0.0    0.1   0.00   1.37    0.0    0.1    0.0    1.4   1.37   0.66    0.00    0.00
 2003 089    33    32    0.1    0.0    0.1   0.00   1.37    0.0    0.1    0.0    1.4   1.37   0.63    0.00    0.00
 2003 090    34    33    0.1    0.0    0.1   0.00   1.36    0.0    0.1    0.0    1.4   1.36   0.59    0.00    0.00
 2003 091    35    34    0.1    0.0    0.1   0.00   1.36    0.0    0.1    0.0    1.4   1.36   0.55    0.00    0.00
 2003 092    36    35    0.1    0.0    0.1   0.00   1.34    0.0    0.1    0.0    1.3   1.34   0.53    0.00    0.00
 2003 093    37    36    0.1    0.0    0.1   0.00   1.33    0.0    0.1    0.0    1.3   1.33   0.51    0.00    0.00
 2003 094    38    37    0.1    0.0    0.1   0.00   1.31    0.0    0.1    0.0    1.3   1.31   0.49    0.00    0.00
 2003 095    39    38    0.1    0.0    0.1   0.00   1.30    0.0    0.1    0.0    1.3   1.30   0.48    0.00    0.00
 2003 096    40    39    0.1    0.0    0.1   0.00   1.28    0.0    0.1    0.0    1.3   1.28   0.48    0.00    0.00
 2003 097    41    40    0.2    0.0    0.2   0.00   4.28    0.2    0.2    0.0    4.3   4.28   1.12    0.00    0.00
 2003 098    42    41    0.2    0.0    0.2   0.00   4.19    0.2    0.2    0.0    4.2   4.19   1.12    0.00    0.00
 2003 099    43    42    0.2    0.0    0.2   0.00   4.25    0.2    0.2    0.0    4.3   4.25   1.10    0.00    0.00
 2003 100    44    43    0.2    0.0    0.2   0.00   4.22    0.2    0.2    0.0    4.2   4.22   1.11    0.00    0.00
 2003 101    45    44    0.2    0.0    0.2   0.00   4.58    0.2    0.2    0.0    4.6   4.58   1.18    0.00    0.00
 2003 102    46    45    0.3    0.0    0.3   0.00   4.82    0.3    0.3    0.0    4.8   4.82   1.26    0.00    0.00
 2003 103    47    46    0.4    0.0    0.4   0.00   4.89    0.4    0.4    0.0    4.9   4.89   1.32    0.00    0.00
 2003 104    48    47    0.6    0.0    0.6   0.00   4.96    0.6    0.6    0.0    5.0   4.96   1.40    0.00    0.00
 2003 105    49    48    0.8    0.0    0.8   0.00   4.96    0.8    0.8    0.0    5.0   4.96   1.46    0.00    0.00
 2003 106    50    49    1.1    0.0    1.1   0.00   4.90    1.1    1.1    0.0    4.9   4.90   1.50    0.00    0.00
 2003 107    51    50    1.5    0.0    1.5   0.00   4.86    1.6    1.5    0.1    4.9   4.86   1.54    0.00    0.00
 2003 108    52    51    2.0    0.0    2.0   0.00   4.83    2.1    1.9    0.1    4.8   4.83   1.53    0.00    0.00
 2003 109    53    52    2.5    0.0    2.5   0.00   4.61    2.5    2.3    0.1    4.6   4.61   1.47    0.00    0.01
 2003 110    54    53    3.3    0.0    3.3   0.00   4.70    3.5    3.1    0.2    4.7   4.70   1.56    0.00    0.01
 2003 111    55    54    3.5    0.0    3.5   0.00   4.22    3.6    3.2    0.2    4.2   4.22   1.34    0.00    0.02
 2003 112    56    55    4.3    0.0    4.3   0.00   4.33    4.8    4.0    0.3    4.3   4.33   2.04    0.00    0.02
 2003 113    57    56    4.9    0.0    4.9   0.00   4.20    5.7    4.6    0.4    4.2   4.20   1.89    0.00    0.04
 2003 114    58    57    5.7    0.0    5.7   0.00   4.15    6.5    5.3    0.5    4.1   4.15   1.53    0.00    0.04
 2003 115    59    58    5.7    0.0    5.7   0.00   3.88    6.5    5.3    0.5    3.9   3.88   1.49    0.00    0.04
 2003 116    60    59    7.3    0.0    7.3   0.00   4.16    8.4    6.7    0.6    4.2   4.16   1.61    0.00    0.04
 2003 117    61    60    8.2    0.0    8.2   0.00   4.02    9.6    7.5    0.7    4.0   4.02   1.59    0.00    0.10
 2003 118    62    61    9.5    0.0    9.5   0.00   4.00   11.3    8.7    0.8    4.0   4.00   1.59    0.00    0.10
 2003 119    63    62   10.7    0.0   10.7   0.00   3.93   12.8    9.8    0.9    3.9   3.93   1.47    0.00    0.20
 2003 120    64    63   12.0    0.0   12.0   0.00   3.86   14.7   11.0    1.0    3.9   3.86   1.49    0.00    0.31
 2003 121    65    64   13.6    0.0   13.6   0.00   3.83   16.6   12.4    1.2    3.8   3.83   1.42    0.00    0.31
 2003 122    66    65   14.6    0.0   14.6   0.00   3.70   18.5   13.4    1.3    3.7   3.70   1.48    0.00    0.46
 2003 123    67    66   15.4    0.0   15.4   0.00   3.58   18.8   14.0    1.3    3.6   3.58   1.22    0.00    0.65
 2003 124    68    67   16.8    0.0   16.8   0.00   3.57   21.7   15.3    1.5    3.6   3.57   1.43    0.00    0.65
 2003 125    69    68   18.3    0.0   18.3   0.00   3.54   23.6   16.7    1.6    3.5   3.54   1.35    0.00    0.89
 2003 126    70    69   21.2    0.0   21.2   0.00   3.60   26.6   19.3    1.9    3.6   3.60   1.27    0.00    0.89
 2003 127    71    70   23.0    0.0   23.0   0.00   3.49   28.9   20.9    2.0    3.5   3.49   1.27    0.00    1.17
 2003 128    72    71   24.6    0.0   24.6   0.00   3.39   31.4   22.4    2.2    3.4   3.39   1.30    0.00    1.46
 2003 129    73    72   26.4    0.0   26.4   0.00   3.32   34.4   24.0    2.4    3.3   3.32   1.34    0.00    1.80
 2003 130    74    73   28.1    0.0   28.1   0.00   3.25   37.0   25.5    2.6    3.2   3.25   1.31    0.00    2.20
 2003 131    75    74   29.8    0.0   29.8   0.00   3.18   39.5   27.0    2.8    3.2   3.18   1.29    0.00    2.63
 2003 132    76    75   30.3    0.0   30.3   0.00   3.06   41.6   27.4    2.9    3.1   3.06   1.33    0.00    3.11
 2003 133    77    76   30.8    0.0   30.8   0.00   2.98   43.1   27.9    3.0    3.0   2.98   1.27    0.00    3.66
 2003 134    78    77   31.3    0.0   31.3   0.00   2.94   43.6   28.2    3.1    2.9   2.94   1.21    0.00    4.26
 2003 135    79    78   31.9    0.0   31.9   0.00   2.91   44.6   28.7    3.2    2.9   2.91   1.19    0.00    4.86
 2003 136    80    79   32.2    0.0   32.2   0.00   2.85   45.3   28.9    3.3    2.8   2.85   1.17    0.00    5.47
 2003 137    81    80   32.2    0.0   32.2   0.00   2.79   45.7   28.9    3.3    2.8   2.79   1.16    0.00    6.10
 2003 138    82    81   32.6    0.0   32.6   0.00   2.76   47.2   29.2    3.4    2.8   2.76   1.21    0.00    6.75
 2003 139    83    82   34.0    0.0   34.0   0.00   2.74   48.3   30.2    3.8    2.7   2.74   1.14    0.00    7.45
 2003 140    84    83   34.8    0.0   34.8   0.00   2.64   49.2   30.0    4.8    2.6   2.64   1.12    0.00    8.13
 2003 141    85    84   34.8    0.0   34.8   0.00   2.59   49.2   29.7    5.1    2.6   2.59   1.10    0.00    8.13
 2003 142    86    85   34.8    0.0   34.8   0.00   2.53   49.2   29.4    5.4    2.5   2.53   1.10    0.00    8.13
 2003 143    87    86   34.8    0.0   34.8   0.00   2.40   49.2   28.6    6.2    2.4   2.40   1.08    0.00    8.13
 2003 144    88    87   33.8    0.0   33.8   0.00   2.21   51.0   26.9    6.8    2.2   2.21   1.21    0.00    8.82
 2003 145    89    88   35.0    0.0   35.0   0.00   2.16   52.9   27.1    7.9    2.2   2.16   1.19    0.00    9.64
 2003 146    90    89   35.0    0.0   35.0   0.00   2.14   52.9   26.8    8.2    2.1   2.14   1.16    0.00    9.64
 2003 147    91    90   35.0    0.0   35.0   0.00   2.12   52.9   26.6    8.4    2.1   2.12   1.14    0.00    9.64
 2003 148    92    91   35.0    0.0   35.0   0.00   2.11   52.9   26.5    8.5    2.1   2.11   1.13    0.00    9.64
 2003 149    93    92   35.0    0.0   35.0   0.00   2.10   52.9   26.4    8.6    2.1   2.10   1.11    0.00    9.64
 2003 150    94    93   35.0    0.0   35.0   0.00   2.09   52.9   26.3    8.7    2.1   2.09   1.10    0.00    9.64
 2003 151    95    94   35.0    0.0   35.0   0.00   2.08   52.9   26.2    8.8    2.1   2.08   1.09    0.00    9.64
 2003 152    96    95   35.0    0.0   35.0   0.00   2.07   52.9   26.0    8.9    2.1   2.07   1.08    0.00    9.64
 2003 153    97    96   35.0    0.0   35.0   0.00   2.06   52.9   25.9    9.1    2.1   2.06   1.07    0.00    9.64
 2003 154    98    97   35.0    0.0   35.0   0.00   2.01   52.9   25.3    9.7    2.0   2.01   1.07    0.00    9.64
 2003 155    99    98   35.0    0.0   35.0   0.00   1.95   52.9   24.4   10.5    1.9   1.95   1.03    0.00    9.64
 2003 156   100    99   35.0    0.0   35.0   0.00   1.85   52.9   23.3   11.7    1.9   1.85   1.00    0.00    9.64
 2003 157   101   100   35.0    0.0   35.0   0.00   1.78   52.9   22.3   12.7    1.8   1.78   1.00    0.00    9.64
 2003 158   102   101   35.0    0.0   35.0   0.00   1.70   52.9   21.3   13.6    1.7   1.70   0.99    0.00    9.64
 2003 159   103   102   35.0    0.0   35.0   0.00   1.63   52.9   20.4   14.6    1.6   1.63   0.98    0.00    9.64
 2003 160   104   103   35.0    0.0   35.0   0.00   1.56   52.9   19.5   15.4    1.6   1.56   0.95    0.00    9.64
 2003 161   105   104   35.0    0.0   35.0   0.00   1.49   52.9   18.7   16.2    1.5   1.49   0.92    0.00    9.64
 2003 162   106   105   35.0    0.0   35.0   0.00   1.43   52.9   18.0   17.0    1.4   1.43   0.90    0.00    9.64
 2003 163   107   106   35.0    0.0   35.0   0.00   1.38   52.9   17.3   17.7    1.4   1.38   0.88    0.00    9.64
 2003 164   108   107   35.0    0.0   35.0   0.00   1.33   52.9   16.7   18.3    1.3   1.33   0.87    0.00    9.64
 2003 165   109   108   35.0    0.0   35.0   0.00   1.28   52.9   16.1   18.9    1.3   1.28   0.85    0.00    9.64
 2003 166   110   109   35.0    0.0   35.0   0.00   1.24   52.9   15.6   19.4    1.2   1.24   0.83    0.00    9.64
 2003 167   111   110   35.0    0.0   35.0   0.00   1.20   52.9   15.1   19.9    1.2   1.20   0.81    0.00    9.64
 2003 168   112   111   35.0    0.0   35.0   0.00   1.16   52.9   14.6   20.4    1.2   1.16   0.80    0.00    9.64
 2003 169   113   112   35.0    5.1   29.8   0.95   1.23   52.9   15.5   14.4    1.2   1.23   0.80    0.00    9.64
 2003 170   114   113   35.0    6.4   28.6   0.96   1.18   52.9   14.8   13.8    1.2   1.18   0.81    0.00    9.64
 2003 171   115   114   35.0    7.6   27.3   0.98   1.14   52.9   14.4   13.0    1.1   1.14   0.81    0.00    9.64
 2003 172   116   115   35.0    8.9   26.1   0.99   1.07   52.9   13.4   12.7    1.1   1.07   0.81    0.00    9.64
 2003 173   117   116   28.8   10.1   18.7   1.00   0.75   53.0    9.5    9.2    0.8   0.75   1.09    0.00   10.49
 2003 174   118   117   29.6   11.4   18.2   0.99   0.74   54.1    9.2    9.0    0.7   0.74   1.09    0.00   11.65
 2003 175   119   118   30.5   12.6   17.9   0.98   0.72   55.2    9.1    8.8    0.7   0.72   1.09    0.00   12.82
 2003 176   120   119   31.4   13.9   17.6   0.98   0.71   56.5    8.9    8.7    0.7   0.71   1.09    0.00   13.99
 2003 177   121   120   32.4   15.1   17.3   0.98   0.70   57.8    8.7    8.5    0.7   0.70   1.09    0.00   15.18
 2003 178   122   121   33.3   16.4   16.9   0.98   0.68   59.1    8.6    8.4    0.7   0.68   1.09    0.00   16.38
 2003 179   123   122   33.3   17.6   15.7   1.00   0.63   59.1    7.9    7.8    0.6   0.63   1.10    0.00   16.38
 2003 180   124   123   34.8   18.8   16.0   1.02   0.65   59.7    8.1    7.9    0.6   0.65   1.06    0.00   16.38
 2003 181   125   124   35.9   20.1   15.8   1.03   0.64   60.9    8.0    7.8    0.6   0.64   1.07    0.00   16.38
 2003 182   126   125   35.9   21.3   14.6   1.05   0.60   60.9    7.5    7.1    0.6   0.60   1.07    0.00   16.38
 2003 183   127   126   37.5   22.5   15.0   1.07   0.61   62.2    7.7    7.3    0.6   0.61   1.07    0.00   16.38
 2003 184   128   127   38.7   23.7   15.0   1.09   0.61   63.9    7.6    7.4    0.6   0.61   1.08    0.00   16.38
 2003 185   129   128   39.5   24.9   14.6   1.10   0.59   64.6    7.4    7.2    0.6   0.59   1.08    0.00   16.38
 2003 186   130   129   40.6   26.2   14.4   1.11   0.58   66.4    7.3    7.1    0.6   0.58   1.10    0.00   16.38
 2003 187   131   130   41.4   27.5   13.9   1.12   0.56   66.6    7.0    6.9    0.6   0.56   1.07    0.00   16.38
 2003 188   132   131   42.3   28.7   13.5   1.14   0.55   67.6    6.9    6.7    0.5   0.55   1.07    0.00   16.38
 2003 189   133   132   43.4   30.0   13.4   1.15   0.54   69.5    6.8    6.6    0.5   0.54   1.10    0.00   16.38
 2003 190   134   133   44.2   31.3   12.9   1.16   0.52   70.4    6.5    6.4    0.5   0.52   1.09    0.00   17.60
 2003 191   135   134   45.2   32.6   12.6   1.17   0.51   71.7    6.4    6.2    0.5   0.51   1.10    0.00   17.60
 2003 192   136   135   46.0   33.9   12.1   1.19   0.49   72.5    6.1    6.0    0.5   0.49   1.09    0.00   18.82
 2003 193   137   136   46.9   35.2   11.8   1.20   0.48   73.9    6.0    5.8    0.5   0.48   1.09    0.00   20.03
 2003 194   138   137   47.8   36.4   11.4   1.22   0.46   74.5    5.8    5.6    0.5   0.46   1.08    0.00   21.26
 2003 195   139   138   48.6   37.6   11.0   1.24   0.45   75.4    5.6    5.5    0.4   0.45   1.07    0.00   22.47
 2003 196   140   139   49.7   38.8   10.8   1.25   0.44   77.2    5.5    5.4    0.4   0.44   1.09    0.00   23.66
 2003 197   141   140   50.6   40.2   10.5   1.27   0.42   78.6    5.3    5.2    0.4   0.42   1.10    0.00   24.89
 2003 198   142   141   51.4   41.4   10.0   1.29   0.40   79.1    5.1    5.0    0.4   0.40   1.08    0.00   26.13
 2003 199   143   142   52.5   42.7    9.8   1.31   0.40   80.9    5.0    4.8    0.4   0.40   1.10    0.00   27.33
 2003 200   144   143   53.4   43.9    9.4   1.33   0.38   81.8    4.8    4.6    0.4   0.38   1.09    0.00   28.57
 2003 201   145   144   53.4   43.9    9.4   1.33   0.38   82.6    4.8    4.6    0.4   0.38   1.09    0.00   28.57
 2003 202   146   145   53.4   40.8   12.5   1.23   0.51   83.5    6.4    6.2    0.5   0.51   1.09    0.00   28.57
