*WATER BALANCE OUTPUT FILE

*RUN   1        : RAINFED LOW NITROGEN    
 MODEL          : SGCER    - Grain sorghum   
 EXPERIMENT     : GATI0301 SG    NIT X IRR, GA_TIFTON 2N*3I                     
 TREATMENT  1   : RAINFED LOW NITROGEN    

@YEAR DOY   DAS    SWTD    FWTD    SNTD   IRRD   PRED   DRND   ROFD   FROD   ESAD   EPAD   EFAD    WBAL   CUMWBAL       TOTS   TOTU   TOTX
 2003 056     0  204.43    0.00    0.00   0.00   0.00   0.00   0.00   0.00   2.53   0.00   0.00    0.00      0.00       0.00   0.00   0.00
 2003 057     1  213.95    0.00    0.00   0.00   9.90   0.00   0.00   0.00   0.37   0.00   0.00    0.00      0.00       9.90   0.00   0.00
 2003 058     2  242.77    0.00    0.00   0.00  29.50   0.00   0.00   0.00   0.68   0.00   0.00    0.00      0.00      29.50   0.00   0.00
 2003 059     3  240.23    0.00    0.00   0.00   0.00   0.00   0.00   0.00   2.54   0.00   0.00    0.00      0.00       0.00   0.00   0.00
 2003 060     4  277.71    0.00    0.00   0.00  39.90   0.00   2.14   0.00   0.28   0.00   0.00    0.00      0.00      37.76   0.00   0.00
 2003 061     5  278.10    0.00    0.00   0.00   1.80   0.00   0.00   0.00   1.41   0.00   0.00    0.00      0.00       1.80   0.00   0.00
 2003 062     6  285.82    0.00    0.00   0.00   9.10   0.00   0.00   0.00   1.38   0.00   0.00    0.00      0.00       9.10   0.00   0.00
 2003 063     7  303.33    0.00    0.00  13.00   5.10   0.00   0.00   0.00   0.59   0.00   0.00    0.00      0.00      18.10   0.00   0.00
 2003 064     8  302.61    0.00    0.00   0.00   1.30   0.00   0.00   0.00   2.03   0.00   0.00    0.00      0.00       1.30   0.00   0.00
 2003 065     9  312.68    0.00    0.00   0.00  10.90   0.00   0.00   0.00   0.83   0.00   0.00    0.00      0.00      10.90   0.00   0.00
 2003 066    10  322.40    0.00    0.00   0.00  11.90   0.00   0.08   0.00   2.09   0.00   0.00    0.00      0.00      11.82   0.00   0.00
 2003 067    11  325.97    0.00    0.00   0.00   6.30   0.00   0.00   0.00   2.74   0.00   0.00    0.00      0.00       6.30   0.00   0.00
 2003 068    12  333.33    0.00    0.00   0.00   8.90   0.00   0.00   0.00   1.54   0.00   0.00    0.00      0.00       8.90   0.00   0.00
 2003 069    13  329.82    0.00    0.00   0.00   0.00   0.00   0.00   0.00   3.50   0.00   0.00    0.00      0.00       0.00   0.00   0.00
 2003 070    14  327.81    0.00    0.00   0.00   0.00   0.00   0.00   0.00   2.01   0.00   0.00    0.00      0.00       0.00   0.00   0.00
 2003 071    15  326.50    0.00    0.00   0.00   0.00   0.00   0.00   0.00   1.30   0.00   0.00    0.00      0.01       0.00   0.00  -0.01
 2003 072    16  327.89    0.00    0.00   0.00   5.30   0.00   0.00   0.00   3.90   0.01   0.00    0.00      0.01       5.30   0.00  -0.01
 2003 073    17  326.56    0.00    0.00   0.00   0.30   0.00   0.00   0.00   1.63   0.01   0.00    0.00      0.00       0.30   0.00   0.00
 2003 074    18  329.78    0.00    0.00   0.00   4.60   0.00   0.00   0.00   1.38   0.00   0.00    0.00      0.00       4.60   0.00   0.00
 2003 075    19  327.77    0.00    0.00   0.00   0.00   0.00   0.00   0.00   2.00   0.00   0.00    0.01      0.01       0.00   0.00  -0.01
 2003 076    20  357.04    0.00    0.00   0.00  31.00   0.00   0.00   0.00   1.72   0.01   0.00    0.00      0.00      31.00   0.00   0.00
 2003 077    21  355.23    0.00    0.00   0.00   0.80   0.00   0.00   0.00   2.60   0.00   0.00    0.00      0.01       0.80   0.00  -0.01
 2003 078    22  356.05    0.00    0.00   0.00   3.30   0.00   0.00   0.00   2.47   0.01   0.00    0.00      0.01       3.30   0.00  -0.01
 2003 079    23  397.98    0.00    0.00   0.00  49.30   0.00   4.78   0.00   2.58   0.01   0.00    0.00      0.01      44.52   0.00  -0.01
 2003 080    24  399.37    0.00    0.00   0.00   5.60   0.00   0.00   0.00   4.19   0.01   0.00    0.01      0.02       5.60   0.00  -0.02
 2003 081    25  396.84    0.00    0.00   0.00   0.00   0.00   0.00   0.00   2.51   0.02   0.00    0.00      0.02       0.00   0.00  -0.02
 2003 082    26  387.27    0.00    0.00   0.00   0.00   8.17   0.00   0.00   1.39   0.02   0.00    0.00      0.02      -8.17   0.00  -0.02
 2003 083    27  375.09    0.00    0.00   0.00   0.00  11.07   0.00   0.00   1.09   0.02   0.00    0.00      0.02     -11.07   0.00  -0.02
 2003 084    28  365.67    0.00    0.00   0.00   0.00   8.48   0.00   0.00   0.92   0.02   0.00    0.00      0.02      -8.48   0.00  -0.02
 2003 085    29  358.37    0.00    0.00   0.00   0.00   6.46   0.00   0.00   0.82   0.02   0.00    0.00      0.02      -6.46   0.00  -0.02
 2003 086    30  357.62    0.00    0.00   0.00   0.30   0.00   0.00   0.00   1.04   0.02   0.00   -0.01      0.01       0.30   0.00  -0.01
 2003 087    31  352.29    0.00    0.00   0.00   0.00   4.64   0.00   0.00   0.68   0.01   0.00    0.00      0.01      -4.64   0.00  -0.01
 2003 088    32  352.63    0.00    0.00   0.00   1.80   0.00   0.00   0.00   1.44   0.01   0.00    0.01      0.02       1.80   0.00  -0.02
 2003 089    33  361.22    0.00    0.00   0.00  11.40   0.00   0.00   0.00   2.80   0.02   0.00   -0.01      0.01      11.40   0.00  -0.01
 2003 090    34  353.29    0.00    0.00   0.00   0.00   4.77   0.00   0.00   3.14   0.01   0.00    0.01      0.02      -4.77   0.00  -0.02
 2003 091    35  348.88    0.00    0.00   0.00   0.00   2.95   0.00   0.00   1.44   0.02   0.00    0.00      0.02      -2.95   0.00  -0.02
 2003 092    36  345.71    0.00    0.00   0.00   0.00   2.05   0.00   0.00   1.11   0.02   0.00    0.00      0.02      -2.05   0.00  -0.02
 2003 093    37  343.23    0.00    0.00   0.00   0.00   1.52   0.00   0.00   0.94   0.02   0.00    0.00      0.02      -1.52   0.00  -0.02
 2003 094    38  341.30    0.00    0.00   0.00   0.00   1.09   0.00   0.00   0.83   0.02   0.00    0.00      0.02      -1.09   0.00  -0.02
 2003 095    39  341.34    0.00    0.00   0.00   1.30   0.21   0.00   0.00   1.04   0.02   0.00   -0.01      0.01       1.09   0.00  -0.01
 2003 096    40  339.78    0.00    0.00   0.00   0.00   0.77   0.00   0.00   0.77   0.01   0.00    0.00      0.01      -0.77   0.00  -0.01
 2003 097    41  347.09    0.00    0.00   0.00   8.60   0.00   0.00   0.00   1.29   0.01   0.00   -0.01      0.01       8.60   0.00  -0.01
 2003 098    42  370.48    0.00    0.00   0.00  24.40   0.22   0.00   0.00   0.78   0.01   0.00    0.00      0.00      24.18   0.00   0.00
 2003 099    43  383.47    0.00    0.00   0.00  15.00   0.22   0.16   0.00   1.63   0.00   0.00    0.00      0.01      14.62   0.00  -0.01
 2003 100    44  383.75    0.00    0.00   0.00   1.50   0.22   0.00   0.00   1.00   0.01   0.00    0.00      0.00       1.28   0.00   0.00
 2003 101    45  370.94    0.00    0.00   0.00   0.00   9.78   0.00   0.00   3.01   0.00   0.00    0.01      0.01      -9.78   0.00  -0.01
 2003 102    46  361.54    0.00    0.00   0.00   0.00   6.83   0.00   0.00   2.54   0.01   0.00    0.01      0.03      -6.83   0.00  -0.03
 2003 103    47  355.16    0.00    0.00   0.00   0.00   4.94   0.00   0.00   1.40   0.03   0.00    0.02      0.04      -4.94   0.00  -0.04
 2003 104    48  350.26    0.00    0.00   0.00   0.00   3.73   0.00   0.00   1.09   0.04   0.00    0.03      0.07      -3.73   0.00  -0.07
 2003 105    49  346.57    0.00    0.00   0.00   0.00   2.67   0.00   0.00   0.92   0.07   0.00    0.03      0.10      -2.67   0.00  -0.10
 2003 106    50  343.69    0.00    0.00   0.00   0.00   1.93   0.00   0.00   0.82   0.10   0.00    0.03      0.13      -1.93   0.00  -0.13
 2003 107    51  341.41    0.00    0.00   0.00   0.00   1.35   0.00   0.00   0.74   0.13   0.00    0.05      0.19      -1.35   0.00  -0.19
 2003 108    52  339.69    0.00    0.00   0.00   0.00   0.79   0.00   0.00   0.68   0.19   0.00    0.05      0.24      -0.79   0.00  -0.24
 2003 109    53  338.32    0.00    0.00   0.00   0.00   0.49   0.00   0.00   0.63   0.24   0.00    0.01      0.25      -0.49   0.00  -0.25
 2003 110    54  336.97    0.00    0.00   0.00   0.00   0.35   0.00   0.00   0.60   0.25   0.00    0.14      0.39      -0.35   0.00  -0.39
 2003 111    55  335.94    0.00    0.00   0.00   0.00   0.22   0.00   0.00   0.56   0.39   0.00   -0.14      0.25      -0.22   0.00  -0.25
 2003 112    56  334.70    0.00    0.00   0.00   0.00   0.06   0.00   0.00   0.54   0.25   0.00    0.39      0.64      -0.06   0.00  -0.64
 2003 113    57  333.45    0.00    0.00   0.00   0.00   0.00   0.00   0.00   0.51   0.64   0.00    0.10      0.74       0.00   0.00  -0.74
 2003 114    58  332.31    0.00    0.00   0.00   0.00   0.00   0.00   0.00   0.49   0.74   0.00   -0.10      0.64       0.00   0.00  -0.64
 2003 115    59  358.86    0.00    0.00   0.00  27.90   0.00   0.00   0.00   1.14   0.64   0.00   -0.43      0.21      27.90   0.00  -0.21
 2003 116    60  355.38    0.00    0.00   0.00   2.00   0.22   0.00   0.00   4.24   0.21   0.00    0.80      1.01       1.78   0.00  -1.01
 2003 117    61  348.71    0.00    0.00   0.00   0.00   3.06   0.00   0.00   2.47   1.01   0.00    0.12      1.14      -3.06   0.00  -1.14
 2003 118    62  344.28    0.00    0.00   0.00   0.00   1.58   0.00   0.00   1.39   1.14   0.00    0.33      1.47      -1.58   0.00  -1.47
 2003 119    63  340.77    0.00    0.00   0.00   0.00   0.94   0.00   0.00   1.09   1.47   0.00    0.01      1.48      -0.94   0.00  -1.48
 2003 120    64  343.15    0.00    0.00   0.00   7.40   0.00   0.00   0.00   3.23   1.48   0.00    0.31      1.79       7.40   0.00  -1.79
 2003 121    65  339.17    0.00    0.00   0.00   0.30   0.00   0.00   0.00   2.32   1.79   0.00    0.16      1.95       0.30   0.00  -1.95
 2003 122    66  339.83    0.00    0.00   0.00   6.60   0.00   0.00   0.00   3.63   1.95   0.00    0.36      2.32       6.60   0.00  -2.32
 2003 123    67  337.16    0.00    0.00   0.00   0.50   0.00   0.00   0.00   1.97   2.32   0.00   -1.12      1.19       0.50   0.00  -1.20
 2003 124    68  332.85    0.00    0.00   0.00   0.00   0.00   0.00   0.00   1.78   1.20   0.00    1.34      2.53       0.00   0.00  -2.53
 2003 125    69  329.09    0.00    0.00   0.00   0.00   0.00   0.00   0.00   1.24   2.53   0.00   -0.02      2.51       0.00   0.00  -2.51
 2003 126    70  325.46    0.00    0.00   0.00   0.00   0.00   0.00   0.00   1.01   2.51   0.00    0.11      2.63       0.00   0.00  -2.63
 2003 127    71  322.05    0.00    0.00   0.00   0.00   0.00   0.00   0.00   0.71   2.63   0.00    0.07      2.70       0.00   0.00  -2.70
 2003 128    72  318.85    0.00    0.00   0.00   0.00   0.00   0.00   0.00   0.17   2.70   0.00    0.32      3.02       0.00   0.00  -3.02
 2003 129    73  315.07    0.00    0.00   0.00   0.00   0.00   0.00   0.00   0.11   3.02   0.00    0.65      3.67       0.00   0.00  -3.67
 2003 130    74  311.21    0.00    0.00   0.00   0.00   0.00   0.00   0.00   0.06   3.67   0.00    0.13      3.80       0.00   0.00  -3.80
 2003 131    75  307.63    0.00    0.00   0.00   0.30   0.00   0.00   0.00   0.04   3.80   0.00    0.03      3.83       0.30   0.00  -3.83
 2003 132    76  303.65    0.00    0.00   0.00   0.30   0.00   0.00   0.00   0.33   3.83   0.00    0.11      3.95       0.30   0.00  -3.95
 2003 133    77  299.42    0.00    0.00   0.00   0.00   0.00   0.00   0.00   0.32   3.95   0.00   -0.04      3.91       0.00   0.00  -3.91
 2003 134    78  297.23    0.00    0.00   0.00   0.00   0.00   0.00   0.00   0.02   3.91   0.00   -1.73      2.18       0.00   0.00  -2.18
 2003 135    79  296.66    0.00    0.00   0.00   1.50   0.00   0.00   0.00   0.01   2.18   0.00   -0.12      2.06       1.50   0.00  -2.06
 2003 136    80  293.79    0.00    0.00   0.00   0.00   0.00   0.00   0.00   0.91   2.06   0.00   -0.10      1.96       0.00   0.00  -1.96
 2003 137    81  291.27    0.00    0.00   0.00   0.00   0.00   0.00   0.00   0.58   1.96   0.00   -0.02      1.94       0.00   0.00  -1.94
 2003 138    82  296.70    0.00    0.00   0.00   7.40   0.00   0.00   0.00   0.00   1.94   0.00    0.03      1.97       7.40   0.00  -1.97
 2003 139    83  293.23    0.00    0.00   0.00   0.30   0.00   0.00   0.00   1.34   1.97   0.00    0.47      2.43       0.30   0.00  -2.43
 2003 140    84  289.86    0.00    0.00   0.00   0.00   0.00   0.00   0.00   1.20   2.43   0.00   -0.27      2.17       0.00   0.00  -2.17
 2003 141    85  287.92    0.00    0.00   0.00   0.00   0.00   0.00   0.00   0.71   2.17   0.00   -0.94      1.23       0.00   0.00  -1.23
 2003 142    86  302.06    0.00    0.00   0.00  14.70   0.00   0.00   0.00   0.01   1.23   0.00   -0.67      0.56      14.70   0.00  -0.56
 2003 143    87  298.87    0.00    0.00   0.00   0.00   0.00   0.00   0.00   1.07   0.56   0.00    1.55      2.12       0.00   0.00  -2.12
 2003 144    88  292.73    0.00    0.00   0.00   0.00   0.00   0.00   0.00   1.98   2.12   0.00    2.05      4.17       0.00   0.00  -4.17
 2003 145    89  288.68    0.00    0.00   0.00   0.00   0.00   0.00   0.00   1.91   4.17   0.00   -2.03      2.13       0.00   0.00  -2.13
 2003 146    90  286.40    0.00    0.00   0.00   0.00   0.00   0.00   0.00   0.71   2.13   0.00   -0.56      1.58       0.00   0.00  -1.58
 2003 147    91  285.32    0.00    0.00   0.00   0.00   0.00   0.00   0.00   0.03   1.58   0.00   -0.53      1.05       0.00   0.00  -1.05
 2003 148    92  284.36    0.00    0.00   0.00   0.00   0.00   0.00   0.00   0.01   1.05   0.00   -0.10      0.95       0.00   0.00  -0.95
 2003 149    93  283.50    0.00    0.00   0.00   0.00   0.00   0.00   0.00   0.01   0.95   0.00   -0.10      0.85       0.00   0.00  -0.85
 2003 150    94  282.65    0.00    0.00   0.00   0.00   0.00   0.00   0.00   0.01   0.85   0.00   -0.01      0.84       0.00   0.00  -0.84
 2003 151    95  281.83    0.00    0.00   0.00   0.00   0.00   0.00   0.00   0.00   0.84   0.00   -0.02      0.82       0.00   0.00  -0.82
 2003 152    96  280.98    0.00    0.00   0.00   0.00   0.00   0.00   0.00   0.00   0.82   0.00    0.03      0.85       0.00   0.00  -0.85
 2003 153    97  280.03    0.00    0.00   0.00   0.00   0.00   0.00   0.00   0.00   0.85   0.00    0.11      0.96       0.00   0.00  -0.96
 2003 154    98  297.91    0.00    0.00   0.00  18.80   0.00   0.00   0.00   0.00   0.96   0.00   -0.04      0.92      18.80   0.00  -0.92
 2003 155    99  292.75    0.00    0.00   0.00   0.00   0.00   0.00   0.00   2.15   0.92   0.00    2.08      3.00       0.00   0.00  -3.00
 2003 156   100  286.92    0.00    0.00   0.00   0.00   0.00   0.00   0.00   1.99   3.00   0.00    0.84      3.84       0.00   0.00  -3.84
 2003 157   101  309.26    0.00    0.00   0.00  24.90   0.00   0.00   0.00   1.07   3.84   0.00   -2.35      1.49      24.90   0.00  -1.49
 2003 158   102  335.52    0.00    0.00   0.00  30.20   0.00   0.65   0.00   1.37   1.49   0.00    0.42      1.91      29.55   0.00  -1.91
 2003 159   103  330.70    0.00    0.00   0.00   0.00   0.00   0.00   0.00   1.91   1.91   0.00    1.00      2.92       0.00   0.00  -2.92
 2003 160   104  323.84    0.00    0.00   0.00   0.00   0.00   0.00   0.00   2.86   2.92   0.00    1.08      4.00       0.00   0.00  -4.00
 2003 161   105  318.58    0.00    0.00   0.00   0.00   0.00   0.00   0.00   1.56   4.00   0.00   -0.30      3.70       0.00   0.00  -3.70
 2003 162   106  313.71    0.00    0.00   0.00   0.00   0.00   0.00   0.00   1.16   3.70   0.00    0.01      3.71       0.00   0.00  -3.71
 2003 163   107  310.72    0.00    0.00   0.00   2.80   0.00   0.00   0.00   2.24   3.71   0.00   -0.17      3.54       2.80   0.00  -3.54
 2003 164   108  313.01    0.00    0.00   0.00   6.90   0.00   0.00   0.00   1.84   3.54   0.00   -0.76      2.78       6.90   0.00  -2.78
 2003 165   109  310.90    0.00    0.00   0.00   2.80   0.00   0.00   0.00   2.05   2.78   0.00    0.08      2.86       2.80   0.00  -2.86
 2003 166   110  304.87    0.00    0.00   0.00   0.00   0.00   0.00   0.00   1.96   2.86   0.00    1.22      4.07       0.00   0.00  -4.08
 2003 167   111  327.89    0.00    0.00   0.00  28.70   0.00   0.00   0.00   2.37   4.08   0.00   -0.77      3.31      28.70   0.00  -3.31
 2003 168   112  339.07    0.00    0.00   0.00  16.50   0.00   0.01   0.00   2.22   3.31   0.00   -0.22      3.09      16.49   0.00  -3.09
 2003 169   113  343.97    0.00    0.00   0.00   7.60   0.00   0.00   0.00   1.13   3.09   0.00   -1.52      1.57       7.60   0.00  -1.57
 2003 170   114  341.76    0.00    0.00   0.00   2.50   0.00   0.00   0.00   1.97   1.57   0.00    1.17      2.74       2.50   0.00  -2.74
 2003 171   115  338.99    0.00    0.00   0.00   0.50   0.00   0.00   0.00   1.37   2.74   0.00   -0.84      1.91       0.50   0.00  -1.91
 2003 172   116  332.92    0.00    0.00   0.00   0.00   0.00   0.00   0.00   1.87   1.91   0.00    2.30      4.20       0.00   0.00  -4.20
 2003 173   117  326.52    0.00    0.00   0.00   0.00   0.00   0.00   0.00   2.19   4.20   0.00    0.00      4.21       0.00   0.00  -4.21
 2003 174   118  321.11    0.00    0.00   0.00   0.00   0.00   0.00   0.00   1.34   4.21   0.00   -0.14      4.07       0.00   0.00  -4.07
 2003 175   119  316.18    0.00    0.00   0.00   0.00   0.00   0.00   0.00   1.06   4.07   0.00   -0.20      3.87       0.00   0.00  -3.87
 2003 176   120  311.29    0.00    0.00   0.00   0.00   0.00   0.00   0.00   0.91   3.87   0.00    0.11      3.98       0.00   0.00  -3.98
 2003 177   121  306.36    0.00    0.00   0.00   0.00   0.00   0.00   0.00   0.81   3.98   0.00    0.14      4.12       0.00   0.00  -4.12
 2003 178   122  301.49    0.00    0.00   0.00   0.00   0.00   0.00   0.00   0.73   4.12   0.00    0.02      4.14       0.00   0.00  -4.14
 2003 179   123  298.65    0.00    0.00   0.00   0.00   0.00   0.00   0.00   0.51   4.14   0.00   -1.82      2.33       0.00   0.00  -2.33
 2003 180   124  299.48    0.00    0.00   0.00   3.00   0.00   0.00   0.00   0.18   2.33   0.00   -0.34      1.98       3.00   0.00  -1.98
 2003 181   125  315.19    0.00    0.00   0.00  20.10   0.00   0.00   0.00   1.83   1.98   0.00    0.57      2.55      20.10   0.00  -2.55
 2003 182   126  340.00    0.00    0.00   0.00  26.90   0.00   0.13   0.00   0.82   2.55   0.00   -1.41      1.14      26.77   0.00  -1.14
 2003 183   127  338.62    0.00    0.00   0.00   2.50   0.00   0.00   0.00   1.62   1.14   0.00    1.12      2.26       2.50   0.00  -2.26
 2003 184   128  364.33    0.00    0.00   0.00  33.50   0.00   2.21   0.00   2.33   2.26   0.00    0.98      3.25      31.29   0.00  -3.25
 2003 185   129  360.96    0.00    0.00   0.00   1.30   0.00   0.00   0.00   1.97   3.25   0.00   -0.55      2.70       1.30   0.00  -2.70
 2003 186   130  355.57    0.00    0.00   0.00   0.50   0.00   0.00   0.00   1.95   2.70   0.00    1.23      3.93       0.50   0.00  -3.93
 2003 187   131  352.05    0.00    0.00   0.00   1.00   0.00   0.00   0.00   1.94   3.93   0.00   -1.36      2.58       1.00   0.00  -2.58
 2003 188   132  347.65    0.00    0.00   0.00   0.00   0.00   0.00   0.00   1.85   2.58   0.00   -0.02      2.56       0.00   0.00  -2.56
 2003 189   133  342.27    0.00    0.00   0.00   0.00   0.00   0.00   0.00   1.26   2.56   0.00    1.55      4.12       0.00   0.00  -4.12
 2003 190   134  337.56    0.00    0.00   0.00   0.00   0.00   0.00   0.00   1.02   4.12   0.00   -0.42      3.69       0.00   0.00  -3.69
 2003 191   135  332.93    0.00    0.00   0.00   0.00   0.00   0.00   0.00   0.88   3.69   0.00    0.06      3.75       0.00   0.00  -3.75
 2003 192   136  328.96    0.00    0.00   0.00   0.00   0.00   0.00   0.00   0.79   3.75   0.00   -0.57      3.18       0.00   0.00  -3.18
 2003 193   137  324.85    0.00    0.00   0.00   0.00   0.00   0.00   0.00   0.72   3.18   0.00    0.21      3.39       0.00   0.00  -3.39
 2003 194   138  321.83    0.00    0.00   0.00   0.00   0.00   0.00   0.00   0.66   3.39   0.00   -1.03      2.36       0.00   0.00  -2.36
 2003 195   139  319.37    0.00    0.00   0.00   0.00   0.00   0.00   0.00   0.44   2.36   0.00   -0.34      2.02       0.00   0.00  -2.02
 2003 196   140  315.94    0.00    0.00   0.00   0.00   0.00   0.00   0.00   0.22   2.02   0.00    1.20      3.21       0.00   0.00  -3.21
 2003 197   141  312.27    0.00    0.00   0.00   0.00   0.00   0.00   0.00   0.18   3.21   0.00    0.27      3.48       0.00   0.00  -3.48
 2003 198   142  333.94    0.00    0.00   0.00  23.90   0.00   0.00   0.00   0.14   3.48   0.00   -1.40      2.09      23.90   0.00  -2.09
 2003 199   143  327.62    0.00    0.00   0.00   0.00   0.00   0.00   0.00   3.01   2.09   0.00    1.23      3.32       0.00   0.00  -3.32
 2003 200   144  324.84    0.00    0.00   0.00   2.00   0.00   0.00   0.00   2.21   3.32   0.00   -0.75      2.56       2.00   0.00  -2.56
 2003 201   145  318.26    0.00    0.00   0.00   0.00   0.00   0.00   0.00   3.15   2.56   0.00    0.86      3.43       0.00   0.00  -3.43
 2003 202   146  313.94    0.00    0.00   0.00   0.00   0.00   0.00   0.00   1.44   3.43   0.00   -0.55      2.87       0.00   0.00  -2.87

     WATER BALANCE PARAMETERS
     ========================                  --mm--

     Soil H20 (start) on Year/day 2003/056     206.96
     Soil H20 (final) on Year/day 2003/202     313.94
     Effective Irrigation                       13.00
     Precipitation                             625.20
     Drainage                                   91.80
     Runoff                                     10.16
     Soil Evaporation                          198.53
     Transpiration                             230.73
     Potential ET                              685.90

     Final Balance                            -0.0002

