*SOIL NITROGEN DAILY OUTPUT FILE

*RUN   1        : RAINFED LOW NITROGEN    
 MODEL          : SGCER    - Grain sorghum   
 EXPERIMENT     : GATI0301 SG    NIT X IRR, GA_TIFTON 2N*3I                     
 TREATMENT  1   : RAINFED LOW NITROGEN    

@YEAR DOY   DAS  NAPC  NI#M    NLCC   NIAD    NOAD   NITD   NHTD  NI1D  NI2D  NI3D  NI4D  NI5D  NI6D  NI7D  NI8D  NI9D  NI10  NH1D  NH2D  NH3D  NH4D  NH5D  NH6D  NH7D  NH8D  NH9D  NH10    NMNC    NITC    NDNC    NIMC    AMLC
 2003 056     0     0     0     0.0    9.9       0    2.4    7.5   0.4   0.2   0.2   0.2   0.1   0.2   0.1   0.1   0.1   0.0   0.2   0.4   0.4   0.4   0.5  0.54  0.45  0.49  0.49  0.00    0.00    0.75    0.00    0.04    0.00
 2003 057     1     0     0     0.0    9.9       0    2.9    7.0   0.3   0.3   0.2   0.3   0.2   0.2   0.2   0.1   0.1   0.0   0.2   0.3   0.4   0.3   0.4  0.49  0.41  0.48  0.48  0.00    0.00    1.30    0.00    0.07    0.00
 2003 058     2     0     0     0.0    9.8       0    3.5    6.4   0.2   0.3   0.4   0.4   0.2   0.3   0.2   0.1   0.1   0.0   0.0   0.3   0.3   0.2   0.4  0.44  0.37  0.46  0.46  0.00    0.00    1.84    0.00    0.14    0.00
 2003 059     3     0     0     0.0    9.8       0    3.9    5.9   0.1   0.3   0.5   0.4   0.2   0.3   0.3   0.1   0.1   0.0   0.0   0.2   0.3   0.2   0.4  0.40  0.33  0.45  0.45  0.00    0.00    2.26    0.00    0.19    0.00
 2003 060     4     0     0     0.0    9.7       0    4.2    5.5   0.0   0.2   0.5   0.7   0.3   0.3   0.3   0.2   0.2   0.0   0.0   0.1   0.2   0.2   0.3  0.37  0.30  0.44  0.44  0.00    0.00    2.64    0.00    0.23    0.00
 2003 061     5     0     0     0.0    9.7       0    4.5    5.2   0.0   0.2   0.5   0.8   0.3   0.4   0.3   0.2   0.2   0.0   0.0   0.1   0.2   0.1   0.3  0.33  0.27  0.43  0.43  0.00    0.00    2.92    0.00    0.26    0.00
 2003 062     6     0     0     0.0    9.6       0    4.8    4.9   0.0   0.2   0.4   0.8   0.4   0.4   0.4   0.2   0.2   0.0   0.0   0.1   0.2   0.1   0.3  0.31  0.25  0.42  0.42  0.00    0.00    3.17    0.00    0.28    0.00
 2003 063     7     0     0     0.0    9.6       0    5.0    4.6   0.0   0.1   0.4   0.6   0.6   0.5   0.4   0.2   0.2   0.0   0.0   0.0   0.2   0.1   0.3  0.28  0.23  0.41  0.41  0.00    0.00    3.39    0.00    0.30    0.00
 2003 064     8     0     0     0.0    9.6       0    5.2    4.4   0.0   0.1   0.3   0.6   0.6   0.5   0.4   0.2   0.2   0.0   0.0   0.0   0.2   0.1   0.2  0.26  0.21  0.40  0.40  0.00    0.00    3.60    0.00    0.32    0.00
 2003 065     9     0     0     0.0    9.6       0    5.4    4.2   0.0   0.1   0.3   0.5   0.7   0.6   0.4   0.2   0.2   0.0   0.0   0.0   0.2   0.1   0.2  0.24  0.19  0.39  0.39  0.00    0.00    3.79    0.00    0.34    0.00
 2003 066    10     0     0     0.0    9.6       0    5.6    4.0   0.0   0.1   0.3   0.5   0.7   0.7   0.4   0.2   0.2   0.0   0.0   0.0   0.2   0.1   0.2  0.22  0.17  0.38  0.38  0.00    0.00    3.98    0.01    0.35    0.00
 2003 067    11     0     0     0.0    9.5       0    5.7    3.8   0.0   0.0   0.3   0.4   0.7   0.8   0.5   0.2   0.2   0.0   0.0   0.0   0.1   0.0   0.2  0.20  0.16  0.37  0.37  0.00    0.00    4.16    0.01    0.35    0.00
 2003 068    12     0     0     0.0    9.5       0    5.9    3.7   0.0   0.0   0.2   0.4   0.7   0.9   0.5   0.2   0.2   0.0   0.0   0.0   0.1   0.0   0.2  0.18  0.14  0.37  0.36  0.00    0.00    4.32    0.01    0.35    0.00
 2003 069    13     0     0     0.0    9.5       0    6.0    3.5   0.0   0.0   0.2   0.3   0.5   0.8   0.8   0.2   0.2   0.0   0.0   0.0   0.1   0.0   0.2  0.16  0.13  0.36  0.35  0.00    0.00    4.48    0.01    0.35    0.00
 2003 070    14     0     0     0.0    9.5       0    6.2    3.3   0.0   0.0   0.2   0.3   0.5   0.8   0.9   0.3   0.3   0.0   0.0   0.0   0.1   0.0   0.1  0.15  0.12  0.35  0.34  0.00    0.00    4.65    0.02    0.35    0.00
 2003 071    15     0     0     0.0    9.5       0    6.3    3.2   0.0   0.0   0.2   0.2   0.4   0.7   0.9   0.4   0.3   0.0   0.0   0.0   0.1   0.0   0.1  0.13  0.11  0.34  0.34  0.00    0.00    4.81    0.02    0.35    0.00
 2003 072    16     0     0     0.0    9.5       0    6.5    3.0   0.0   0.0   0.2   0.2   0.4   0.8   0.9   0.4   0.3   0.0   0.0   0.0   0.1   0.0   0.1  0.13  0.10  0.33  0.33  0.00    0.01    4.95    0.02    0.35    0.00
 2003 073    17     0     0     0.0    9.5       0    6.6    2.9   0.0   0.0   0.2   0.2   0.4   0.8   0.9   0.4   0.3   0.0   0.0   0.0   0.1   0.0   0.1  0.12  0.09  0.32  0.32  0.00    0.01    5.08    0.02    0.35    0.00
 2003 074    18     0     0     0.0    9.5       0    6.7    2.8   0.0   0.0   0.2   0.2   0.4   0.8   0.9   0.4   0.3   0.0   0.0   0.0   0.0   0.0   0.1  0.11  0.09  0.31  0.31  0.00    0.01    5.20    0.02    0.35    0.00
 2003 075    19     0     0     0.0    9.5       0    6.8    2.7   0.0   0.0   0.2   0.2   0.4   0.8   0.9   0.5   0.3   0.0   0.0   0.0   0.0   0.0   0.1  0.11  0.08  0.31  0.30  0.00    0.01    5.31    0.02    0.35    0.00
 2003 076    20     0     0     0.0    9.5       0    6.9    2.6   0.0   0.0   0.2   0.2   0.4   0.8   0.9   0.5   0.3   0.0   0.0   0.0   0.0   0.0   0.1  0.10  0.08  0.30  0.30  0.00    0.02    5.40    0.02    0.35    0.00
 2003 077    21     0     0     0.0    9.5       0    7.0    2.5   0.0   0.0   0.1   0.2   0.4   0.8   0.9   0.5   0.3   0.0   0.0   0.0   0.0   0.0   0.1  0.10  0.07  0.29  0.29  0.00    0.02    5.49    0.03    0.35    0.00
 2003 078    22     0     0     0.0    9.5       0    7.1    2.4   0.0   0.0   0.1   0.2   0.4   0.8   0.9   0.5   0.3   0.0   0.0   0.0   0.0   0.0   0.0  0.10  0.07  0.28  0.28  0.00    0.02    5.57    0.03    0.35    0.00
 2003 079    23     0     0     0.0    9.5       0    7.1    2.4   0.0   0.0   0.1   0.1   0.4   0.8   0.9   0.6   0.3   0.0   0.0   0.0   0.0   0.0   0.0  0.09  0.07  0.28  0.27  0.00    0.02    5.65    0.03    0.35    0.00
 2003 080    24     0     0     0.0    9.5       0    7.2    2.3   0.0   0.0   0.1   0.1   0.3   0.8   1.0   0.6   0.3   0.0   0.0   0.0   0.0   0.0   0.0  0.09  0.06  0.27  0.27  0.00    0.03    5.71    0.04    0.35    0.00
 2003 081    25     0     0     0.0    9.5       0    7.3    2.2   0.0   0.0   0.1   0.1   0.3   0.7   0.8   0.7   0.4   0.0   0.0   0.0   0.0   0.0   0.0  0.09  0.06  0.26  0.26  0.00    0.03    5.78    0.05    0.35    0.00
 2003 082    26     0     0     0.2    9.3       0    7.1    2.2   0.0   0.0   0.0   0.1   0.2   0.6   0.8   0.7   0.5   0.0   0.0   0.0   0.0   0.0   0.0  0.09  0.06  0.26  0.25  0.00    0.03    5.84    0.06    0.35    0.00
 2003 083    27     0     0     0.4    9.1       0    7.0    2.1   0.0   0.0   0.0   0.1   0.2   0.5   0.7   0.7   0.5   0.0   0.0   0.0   0.0   0.0   0.0  0.08  0.06  0.26  0.25  0.00    0.03    5.89    0.06    0.35    0.00
 2003 084    28     0     0     0.6    8.9       0    6.8    2.1   0.0   0.0   0.0   0.1   0.2   0.5   0.7   0.7   0.5   0.0   0.0   0.0   0.0   0.0   0.0  0.08  0.05  0.25  0.25  0.00    0.04    5.94    0.06    0.35    0.00
 2003 085    29     0     0     0.7    8.8       0    6.7    2.0   0.0   0.0   0.0   0.1   0.2   0.4   0.6   0.7   0.5   0.0   0.0   0.0   0.0   0.0   0.0  0.07  0.05  0.25  0.24  0.00    0.04    5.99    0.07    0.35    0.00
 2003 086    30     0     0     0.7    8.8       0    6.8    2.0   0.0   0.0   0.0   0.1   0.2   0.4   0.6   0.7   0.5   0.0   0.0   0.0   0.0   0.0   0.0  0.07  0.05  0.24  0.24  0.00    0.04    6.03    0.07    0.35    0.00
 2003 087    31     0     0     0.8    8.7       0    6.7    2.0   0.0   0.0   0.0   0.1   0.1   0.4   0.6   0.7   0.6   0.0   0.0   0.0   0.0   0.0   0.0  0.07  0.05  0.24  0.23  0.00    0.05    6.08    0.07    0.35    0.00
 2003 088    32     0     0     0.8    8.7       0    6.8    1.9   0.0   0.0   0.0   0.1   0.1   0.4   0.6   0.7   0.6   0.0   0.0   0.0   0.0   0.0   0.0  0.06  0.04  0.24  0.23  0.00    0.05    6.12    0.07    0.35    0.00
 2003 089    33     0     0     0.8    8.7       0    6.8    1.9   0.0   0.0   0.0   0.1   0.1   0.4   0.6   0.7   0.6   0.0   0.0   0.0   0.0   0.0   0.0  0.06  0.04  0.23  0.23  0.00    0.05    6.16    0.07    0.35    0.00
 2003 090    34     0     0     0.9    8.6       0    6.7    1.8   0.0   0.0   0.0   0.1   0.1   0.4   0.6   0.7   0.6   0.0   0.0   0.0   0.0   0.0   0.0  0.06  0.04  0.23  0.22  0.00    0.06    6.20    0.07    0.35    0.00
 2003 091    35     0     0     1.0    8.5       0    6.7    1.8   0.0   0.0   0.0   0.1   0.1   0.4   0.6   0.7   0.6   0.0   0.0   0.0   0.0   0.0   0.0  0.06  0.04  0.23  0.22  0.00    0.06    6.24    0.08    0.35    0.00
 2003 092    36     0     0     1.0    8.4       0    6.7    1.8   0.0   0.0   0.0   0.1   0.1   0.4   0.6   0.7   0.6   0.0   0.0   0.0   0.0   0.0   0.0  0.05  0.03  0.22  0.22  0.00    0.06    6.28    0.08    0.35    0.00
 2003 093    37     0     0     1.1    8.4       0    6.7    1.7   0.0   0.0   0.0   0.1   0.1   0.4   0.6   0.7   0.6   0.0   0.0   0.0   0.0   0.0   0.0  0.05  0.03  0.22  0.21  0.00    0.06    6.31    0.08    0.35    0.00
 2003 094    38     0     0     1.1    8.4       0    6.7    1.7   0.0   0.0   0.0   0.1   0.1   0.4   0.6   0.7   0.6   0.0   0.0   0.0   0.0   0.0   0.0  0.05  0.03  0.22  0.21  0.00    0.06    6.34    0.08    0.35    0.00
 2003 095    39     0     0     1.1    8.4       0    6.7    1.7   0.0   0.0   0.0   0.1   0.1   0.4   0.6   0.7   0.6   0.0   0.0   0.0   0.0   0.0   0.0  0.04  0.03  0.21  0.21  0.00    0.07    6.38    0.08    0.35    0.00
 2003 096    40     0     0     1.1    8.4       0    6.7    1.6   0.0   0.0   0.0   0.1   0.1   0.4   0.6   0.7   0.6   0.0   0.0   0.0   0.0   0.0   0.0  0.04  0.03  0.21  0.21  0.00    0.07    6.41    0.08    0.35    0.00
 2003 097    41    27     1     1.1   35.3       0   20.4   14.9  22.7   0.0   0.0   0.1   0.1   0.4   0.6   0.7   0.6   0.0  22.2   0.0   0.0   0.0   0.0  0.04  0.03  0.21  0.20  0.00    0.07    6.45    0.08    0.35    0.04
 2003 098    42    27     1     1.1   35.0       0   33.5    1.6  30.4   7.0   0.0   0.1   0.1   0.4   0.6   0.7   0.6   0.0   0.0   0.0   0.0   0.0   0.0  0.04  0.02  0.20  0.20  0.00    0.07   19.48    0.08    0.40    0.10
 2003 099    43    27     1     1.1   35.0       0   33.4    1.5  16.3  10.2   3.8   0.1   0.1   0.4   0.6   0.7   0.6   0.0   0.0   0.0   0.0   0.0   0.0  0.04  0.02  0.20  0.20  0.00    0.08   19.51    0.08    0.40    0.10
 2003 100    44    27     1     1.2   34.9       0   33.4    1.5  14.4   9.9   4.5   0.7   0.2   0.4   0.6   0.7   0.6   0.0   0.0   0.0   0.0   0.0   0.0  0.03  0.02  0.20  0.19  0.00    0.08   19.54    0.08    0.40    0.10
 2003 101    45    27     1     1.4   34.6       0   33.1    1.5  13.2   9.1   4.6   1.5   0.4   0.4   0.5   0.7   0.6   0.0   0.0   0.0   0.0   0.0   0.0  0.03  0.02  0.20  0.19  0.00    0.08   19.57    0.08    0.40    0.10
 2003 102    46    62     2     1.6   69.2       1   50.6   18.7  42.2   8.4   4.6   2.0   0.6   0.5   0.5   0.7   0.6   0.0  28.7   0.0   0.0   0.0   0.0  0.03  0.02  0.19  0.19  0.00    0.08   19.59    0.09    0.40    0.23
 2003 103    47    62     2     1.7   68.9       1   63.4    5.5  63.8   7.8   4.5   2.3   0.8   0.6   0.5   0.7   0.6   0.0   6.7   0.0   0.0   0.0   0.0  0.03  0.02  0.19  0.18  0.00    0.08   32.41    0.10    0.41    0.34
 2003 104    48    62     2     1.8   68.6       1   65.9    2.6  68.2   7.3   4.4   2.5   1.0   0.7   0.6   0.7   0.6   0.0   2.0   0.0   0.0   0.0   0.0  0.03  0.02  0.19  0.18  0.00    0.08   35.16    0.12    0.41    0.40
 2003 105    49    62     2     1.9   68.3       1   66.5    1.7  69.4   6.9   4.4   2.6   1.1   0.8   0.6   0.7   0.7   0.0   0.5   0.0   0.0   0.0   0.0  0.03  0.02  0.18  0.18  0.00    0.09   36.01    0.13    0.42    0.44
 2003 106    50    62     2     1.9   67.9       1   66.5    1.4  69.5   6.7   4.3   2.7   1.2   0.8   0.6   0.7   0.7   0.0   0.1   0.0   0.0   0.0   0.0  0.02  0.02  0.18  0.18  0.00    0.09   36.28    0.14    0.42    0.48
 2003 107    51    62     2     2.0   67.6       1   66.2    1.4  69.0   6.5   4.2   2.7   1.2   0.9   0.6   0.7   0.7   0.0   0.0   0.0   0.0   0.0   0.0  0.02  0.01  0.18  0.17  0.00    0.10   36.31    0.15    0.42    0.52
 2003 108    52    62     2     2.0   67.1       1   65.8    1.4  68.4   6.4   4.1   2.7   1.3   0.9   0.6   0.7   0.7   0.0   0.0   0.0   0.0   0.0   0.0  0.02  0.01  0.18  0.17  0.00    0.12   36.34    0.15    0.42    0.52
 2003 109    53    62     2     2.0   66.6       1   65.3    1.3  67.8   6.3   4.0   2.7   1.3   0.9   0.6   0.7   0.7   0.0   0.0   0.0   0.0   0.0   0.0  0.02  0.01  0.17  0.17  0.00    0.16   36.38    0.16    0.42    0.52
 2003 110    54    62     2     2.0   66.2       1   64.8    1.3  67.3   6.2   4.0   2.7   1.3   0.9   0.6   0.7   0.7   0.0   0.0   0.1   0.0   0.0   0.0  0.02  0.01  0.17  0.17  0.00    0.19   36.42    0.16    0.42    0.52
 2003 111    55    62     2     2.0   65.3       1   64.0    1.3  66.2   6.0   3.9   2.7   1.3   0.9   0.6   0.7   0.7   0.0   0.0   0.1   0.0   0.0   0.0  0.02  0.01  0.17  0.16  0.00    0.23   36.46    0.16    0.42    0.52
 2003 112    56    62     2     2.0   65.2       1   63.9    1.3  66.2   5.9   3.9   2.7   1.3   0.9   0.6   0.7   0.7   0.0   0.0   0.1   0.0   0.0   0.0  0.02  0.01  0.17  0.16  0.00    0.28   36.51    0.16    0.42    0.52
 2003 113    57    62     2     2.0   64.0       1   62.7    1.3  65.0   5.6   3.8   2.7   1.3   0.9   0.6   0.7   0.7   0.0   0.0   0.1   0.0   0.0   0.0  0.02  0.01  0.16  0.16  0.00    0.32   36.56    0.16    0.42    0.52
 2003 114    58    62     2     2.0   63.2       1   61.9    1.3  64.3   5.4   3.7   2.7   1.3   0.9   0.6   0.7   0.7   0.0   0.0   0.1   0.0   0.0   0.0  0.01  0.01  0.16  0.16  0.00    0.36   36.61    0.16    0.42    0.52
 2003 115    59    62     2     2.0   62.4       1   61.2    1.3  10.4  27.1   8.2   2.9   1.3   0.9   0.6   0.7   0.7   0.0   0.0   0.1   0.0   0.0   0.0  0.01  0.01  0.16  0.15  0.00    0.39   36.66    0.16    0.42    0.53
 2003 116    60    62     2     2.0   62.5       1   61.2    1.3   9.1  25.5  10.1   3.3   1.4   0.9   0.6   0.7   0.7   0.0   0.0   0.1   0.0   0.0   0.0  0.01  0.01  0.16  0.15  0.00    0.44   36.71    0.17    0.42    0.53
 2003 117    61    62     2     2.1   60.5       1   59.2    1.3   8.2  22.4  10.4   4.4   1.7   1.1   0.6   0.7   0.7   0.0   0.0   0.1   0.0   0.0   0.0  0.01  0.01  0.15  0.15  0.00    0.49   36.77    0.17    0.42    0.53
 2003 118    62    62     2     2.2   59.3       1   58.0    1.3   8.0  20.7  10.5   4.9   1.9   1.1   0.7   0.7   0.7   0.0   0.0   0.1   0.0   0.0   0.0  0.01  0.01  0.15  0.15  0.00    0.55   36.83    0.17    0.42    0.54
 2003 119    63    62     2     2.2   57.6       1   56.3    1.3   7.7  19.1  10.3   5.2   2.0   1.2   0.7   0.7   0.7   0.0   0.0   0.1   0.0   0.0   0.0  0.01  0.01  0.15  0.15  0.00    0.62   36.90    0.17    0.42    0.55
 2003 120    64    62     2     2.2   56.2       1   54.9    1.2   6.2  18.5  10.4   5.2   2.0   1.2   0.7   0.7   0.7   0.0   0.0   0.1   0.0   0.0   0.0  0.01  0.01  0.15  0.14  0.00    0.69   36.97    0.18    0.42    0.55
 2003 121    65    62     2     2.2   54.4       1   53.2    1.2   5.9  17.5  10.1   5.2   2.0   1.2   0.7   0.7   0.7   0.0   0.0   0.1   0.0   0.0   0.0  0.01  0.01  0.15  0.14  0.00    0.78   37.05    0.18    0.42    0.56
 2003 122    66    62     2     2.2   52.5       1   51.3    1.2   4.9  16.9   9.8   5.1   2.0   1.2   0.7   0.7   0.7   0.0   0.0   0.1   0.0   0.0   0.0  0.01  0.01  0.14  0.14  0.00    0.86   37.16    0.18    0.42    0.57
 2003 123    67    62     2     2.2   50.7       1   49.5    1.2   4.7  16.0   9.3   5.0   2.0   1.2   0.7   0.7   0.7   0.0   0.0   0.1   0.0   0.0   0.0  0.01  0.01  0.14  0.14  0.00    0.96   37.24    0.18    0.42    0.57
 2003 124    68    62     2     2.2   50.5       1   49.3    1.2   4.8  15.9   9.2   5.0   2.0   1.2   0.7   0.7   0.7   0.0   0.0   0.1   0.0   0.0   0.0  0.01  0.01  0.14  0.13  0.00    1.05   37.36    0.18    0.42    0.59
 2003 125    69    62     2     2.2   47.7       1   46.5    1.2   4.7  14.5   8.5   4.8   2.0   1.2   0.7   0.7   0.7   0.0   0.0   0.1   0.0   0.0   0.0  0.01  0.00  0.14  0.13  0.00    1.12   37.44    0.18    0.42    0.59
 2003 126    70    62     2     2.2   45.9       2   44.7    1.1   4.8  13.5   8.0   4.7   2.0   1.2   0.7   0.7   0.7   0.0   0.0   0.1   0.0   0.0   0.0  0.01  0.00  0.13  0.13  0.00    1.18   37.52    0.19    0.42    0.60
 2003 127    71    62     2     2.2   42.8       2   41.7    1.1   5.1  11.9   7.1   4.4   1.9   1.2   0.7   0.7   0.7   0.0   0.0   0.1   0.0   0.0   0.0  0.01  0.00  0.13  0.13  0.00    1.22   37.58    0.19    0.42    0.60
 2003 128    72    62     2     2.2   40.6       2   39.5    1.1   5.3  10.9   6.4   4.2   1.9   1.2   0.7   0.7   0.7   0.0   0.0   0.1   0.0   0.0   0.0  0.01  0.00  0.13  0.13  0.00    1.26   37.64    0.19    0.42    0.61
 2003 129    73    62     2     2.2   38.1       2   37.0    1.1   5.6   9.9   5.5   4.0   1.9   1.2   0.7   0.7   0.7   0.0   0.0   0.1   0.0   0.0   0.0  0.01  0.00  0.13  0.12  0.00    1.29   37.69    0.19    0.42    0.61
 2003 130    74    62     2     2.2   35.1       2   34.1    1.1   5.7   8.8   4.5   3.5   1.8   1.2   0.7   0.7   0.7   0.0   0.0   0.1   0.0   0.0   0.0  0.01  0.00  0.13  0.12  0.00    1.31   37.73    0.19    0.42    0.61
 2003 131    75    62     2     2.2   32.6       2   31.5    1.0   5.8   7.8   3.8   3.1   1.7   1.2   0.7   0.7   0.7   0.0   0.0   0.1   0.0   0.0   0.0  0.00  0.00  0.12  0.12  0.00    1.32   37.77    0.19    0.42    0.61
 2003 132    76    62     2     2.2   30.1       2   29.1    1.0   5.8   6.9   3.3   2.5   1.5   1.2   0.7   0.7   0.7   0.0   0.0   0.1   0.0   0.0   0.0  0.00  0.00  0.12  0.12  0.00    1.34   37.81    0.19    0.42    0.61
 2003 133    77    62     2     2.2   28.0       2   27.0    1.0   5.8   6.1   3.0   2.0   1.4   1.2   0.7   0.7   0.7   0.0   0.0   0.1   0.0   0.0   0.0  0.00  0.00  0.12  0.12  0.00    1.35   37.84    0.19    0.42    0.61
 2003 134    78    62     2     2.2   26.5       2   25.6    1.0   5.8   5.5   2.7   1.8   1.2   1.2   0.7   0.7   0.7   0.0   0.0   0.1   0.0   0.0   0.0  0.00  0.00  0.12  0.12  0.00    1.36   37.87    0.19    0.42    0.61
 2003 135    79    62     2     2.2   26.0       2   25.0    0.9   5.8   5.3   2.7   1.7   1.1   1.2   0.7   0.7   0.7   0.0   0.0   0.1   0.0   0.0   0.0  0.00  0.00  0.12  0.11  0.00    1.37   37.90    0.19    0.42    0.61
 2003 136    80    62     2     2.2   25.0       2   24.0    0.9   5.1   5.2   2.6   1.6   1.0   1.2   0.7   0.7   0.7   0.0   0.0   0.1   0.0   0.0   0.0  0.00  0.00  0.11  0.11  0.00    1.39   37.92    0.19    0.42    0.61
 2003 137    81   116     3     2.2   78.3       2   50.6   27.7  50.3   5.0   2.5   1.5   0.9   1.1   0.7   0.7   0.7   0.0  44.7   0.1   0.0   0.0   0.0  0.00  0.00  0.11  0.11  0.00    1.39   37.95    0.19    0.42    0.69
 2003 138    82   116     3     2.2   77.8       2   55.8   22.0  56.9   6.3   2.5   1.4   0.8   1.1   0.7   0.8   0.7   0.0  35.2   0.1   0.0   0.0   0.0  0.00  0.00  0.11  0.11  0.00    1.40   43.54    0.20    0.42    0.74
 2003 139    83   116     3     2.2   76.3       2   75.4    0.9  86.8   7.7   2.5   1.4   0.8   1.1   0.7   0.8   0.7   0.0   0.0   0.1   0.0   0.0   0.0  0.00  0.00  0.11  0.11  0.00    1.45   63.81    0.20    0.42    0.77
 2003 140    84   116     3     2.2   75.2       2   74.3    0.9  83.3   8.5   2.5   1.4   0.8   1.1   0.7   0.8   0.7   0.0   0.1   0.1   0.0   0.0   0.0  0.00  0.00  0.11  0.11  0.00    1.49   63.83    0.20    0.42    0.77
 2003 141    85   116     3     2.2   74.3       2   73.5    0.8  83.4   8.0   2.5   1.3   0.7   1.1   0.7   0.8   0.7   0.0   0.0   0.0   0.0   0.0   0.0  0.00  0.00  0.11  0.10  0.00    1.50   63.86    0.20    0.42    0.79
 2003 142    86   116     3     2.2   74.3       2   73.5    0.8  36.9  31.2   2.5   1.3   0.7   1.1   0.7   0.8   0.7   0.0   0.0   0.0   0.0   0.0   0.0  0.00  0.00  0.10  0.10  0.00    1.51   63.88    0.20    0.42    0.79
 2003 143    87   116     3     2.2   74.4       2   73.5    0.9  32.9  33.1   2.6   1.3   0.7   1.1   0.7   0.8   0.7   0.0   0.1   0.1   0.0   0.0   0.0  0.00  0.00  0.10  0.10  0.00    1.56   63.90    0.20    0.42    0.79
 2003 144    88   116     3     2.2   74.4       2   73.6    0.8  30.8  34.0   2.8   1.3   0.7   1.1   0.7   0.8   0.7   0.0   0.0   0.1   0.0   0.0   0.0  0.00  0.00  0.10  0.10  0.00    1.64   63.98    0.20    0.42    0.82
 2003 145    89   116     3     2.2   72.7       2   71.8    0.8  28.9  33.4   3.0   1.3   0.7   1.1   0.7   0.8   0.7   0.0   0.0   0.1   0.0   0.0   0.0  0.00  0.00  0.10  0.10  0.00    1.68   64.01    0.20    0.42    0.83
 2003 146    90   116     3     2.2   70.8       2   70.0    0.8  28.9  31.8   3.1   1.3   0.6   1.1   0.7   0.8   0.7   0.0   0.0   0.1   0.0   0.0   0.0  0.00  0.00  0.10  0.10  0.00    1.70   64.04    0.20    0.42    0.84
 2003 147    91   116     3     2.2   70.8       2   70.0    0.8  28.9  31.7   3.1   1.3   0.6   1.1   0.7   0.8   0.7   0.0   0.0   0.1   0.0   0.0   0.0  0.00  0.00  0.10  0.09  0.00    1.71   64.06    0.20    0.42    0.84
 2003 148    92   116     3     2.2   70.8       2   70.0    0.8  28.9  31.7   3.2   1.3   0.6   1.1   0.7   0.8   0.7   0.0   0.0   0.1   0.0   0.0   0.0  0.00  0.00  0.10  0.09  0.00    1.72   64.08    0.20    0.42    0.84
 2003 149    93   116     3     2.2   70.8       2   70.1    0.8  28.9  31.7   3.2   1.3   0.6   1.1   0.7   0.8   0.7   0.0   0.0   0.1   0.0   0.0   0.0  0.00  0.00  0.09  0.09  0.00    1.72   64.11    0.20    0.42    0.84
 2003 150    94   116     3     2.2   70.8       2   70.1    0.8  28.9  31.7   3.2   1.3   0.6   1.1   0.7   0.8   0.7   0.0   0.0   0.1   0.0   0.0   0.0  0.00  0.00  0.09  0.09  0.00    1.73   64.13    0.20    0.42    0.84
 2003 151    95   116     3     2.2   70.8       2   70.1    0.7  28.9  31.7   3.3   1.4   0.6   1.1   0.7   0.8   0.7   0.0   0.0   0.1   0.0   0.0   0.0  0.00  0.00  0.09  0.09  0.00    1.73   64.14    0.20    0.42    0.84
 2003 152    96   116     3     2.2   70.8       2   70.1    0.7  28.9  31.7   3.3   1.4   0.6   1.1   0.7   0.8   0.7   0.0   0.0   0.1   0.0   0.0   0.0  0.00  0.00  0.09  0.09  0.00    1.73   64.16    0.20    0.42    0.84
 2003 153    97   116     3     2.2   70.8       2   70.1    0.7  28.9  31.7   3.3   1.4   0.6   1.1   0.7   0.8   0.7   0.0   0.0   0.0   0.0   0.0   0.0  0.00  0.00  0.09  0.09  0.00    1.73   64.18    0.20    0.42    0.84
 2003 154    98   116     3     2.2   70.8       2   70.1    0.7   8.8  41.7   3.3   1.4   0.6   1.1   0.7   0.8   0.7   0.0   0.0   0.0   0.0   0.0   0.0  0.00  0.00  0.09  0.09  0.00    1.74   64.20    0.20    0.42    0.84
 2003 155    99   116     3     2.2   70.9       2   70.2    0.7   7.8  42.0   3.5   1.4   0.6   1.1   0.7   0.8   0.7   0.0   0.1   0.1   0.0   0.0   0.0  0.00  0.00  0.09  0.08  0.00    1.80   64.22    0.20    0.42    0.84
 2003 156   100   116     3     2.2   71.0       2   70.3    0.7   7.3  42.0   3.8   1.4   0.6   1.1   0.7   0.8   0.7   0.0   0.0   0.1   0.0   0.0   0.0  0.00  0.00  0.08  0.08  0.00    1.90   64.32    0.20    0.42    0.87
 2003 157   101   116     3     2.2   71.0       2   70.3    0.8   2.1  38.4  10.0   1.4   0.6   1.1   0.7   0.8   0.7   0.0   0.1   0.1   0.0   0.0   0.0  0.00  0.00  0.08  0.08  0.00    1.98   64.35    0.20    0.42    0.87
 2003 158   102   116     3     2.2   71.2       2   70.4    0.8   0.8  22.8  24.2   4.2   0.6   1.1   0.7   0.8   0.7   0.0   0.0   0.1   0.0   0.0   0.0  0.00  0.00  0.08  0.08  0.00    2.13   64.45    0.20    0.42    0.91
 2003 159   103   116     3     2.2   71.3       2   70.4    0.8   0.8  19.7  20.5  12.6   0.6   1.1   0.7   0.8   0.8   0.0   0.1   0.2   0.0   0.0   0.0  0.00  0.00  0.08  0.08  0.00    2.26   64.50    0.21    0.42    0.92
 2003 160   104   116     3     2.2   71.4       2   70.6    0.8   0.9  17.8  18.6  17.3   0.7   1.1   0.7   0.8   0.8   0.0   0.0   0.2   0.0   0.0   0.0  0.00  0.00  0.08  0.08  0.00    2.43   64.65    0.21    0.42    0.94
 2003 161   105   116     3     2.2   71.6       2   70.7    0.9   0.9  16.7  19.7  17.3   0.8   1.1   0.6   0.8   0.8   0.0   0.1   0.2   0.0   0.0   0.0  0.00  0.00  0.08  0.08  0.00    2.61   64.77    0.21    0.42    0.95
 2003 162   106   116     3     2.2   71.7       2   70.9    0.8   1.0  16.0  20.4  17.3   0.9   1.1   0.6   0.8   0.8   0.0   0.0   0.2   0.0   0.0   0.0  0.00  0.00  0.07  0.08  0.00    2.78   64.95    0.22    0.42    0.98
 2003 163   107   116     3     2.2   71.9       2   71.0    0.9   1.0  15.7  20.5  17.4   1.0   1.1   0.6   0.8   0.8   0.0   0.0   0.2   0.1   0.0   0.0  0.00  0.00  0.07  0.07  0.00    2.96   65.09    0.23    0.42    0.98
 2003 164   108   116     3     2.2   72.1       3   71.2    0.9   0.9  15.8  20.4  17.5   1.1   1.1   0.6   0.8   0.8   0.0   0.0   0.2   0.1   0.0   0.0  0.00  0.00  0.07  0.07  0.00    3.14   65.28    0.23    0.42    1.00
 2003 165   109   116     3     2.2   72.3       3   71.4    0.9   0.8  15.8  20.4  17.6   1.2   1.1   0.6   0.8   0.8   0.0   0.1   0.2   0.1   0.0   0.0  0.00  0.00  0.07  0.07  0.00    3.36   65.46    0.23    0.42    1.00
 2003 166   110   116     3     2.2   72.4       3   71.6    0.8   1.0  15.7  20.4  17.8   1.2   1.1   0.6   0.8   0.8   0.0   0.0   0.2   0.1   0.0   0.0  0.00  0.00  0.07  0.07  0.00    3.57   65.71    0.23    0.42    1.04
 2003 167   111   116     3     2.2   72.6       3   71.8    0.8   0.3  13.0  23.5  17.9   1.3   1.1   0.6   0.8   0.8   0.0   0.1   0.2   0.1   0.0   0.0  0.00  0.00  0.06  0.07  0.00    3.74   65.85    0.23    0.42    1.04
 2003 168   112   116     3     2.2   72.8       3   72.0    0.8   0.3  10.3  24.2  20.6   1.3   1.1   0.6   0.8   0.8   0.0   0.0   0.2   0.1   0.0   0.0  0.00  0.00  0.06  0.07  0.00    3.91   66.05    0.23    0.42    1.04
 2003 169   113   116     3     2.2   72.9       3   72.1    0.8   0.3   9.1  23.0  23.7   1.3   1.1   0.6   0.8   0.8   0.0   0.1   0.2   0.1   0.0   0.0  0.00  0.00  0.06  0.07  0.00    4.08   66.18    0.23    0.42    1.05
 2003 170   114   116     3     2.2   73.1       3   72.2    0.9   0.3   8.1  21.6  26.6   1.4   1.1   0.6   0.8   0.8   0.0   0.1   0.2   0.1   0.0   0.0  0.00  0.00  0.06  0.07  0.00    4.23   66.32    0.23    0.42    1.05
 2003 171   115   116     3     2.2   73.3       3   72.4    0.8   0.4   7.4  20.3  29.0   1.6   1.1   0.6   0.8   0.8   0.0   0.0   0.2   0.1   0.0   0.0  0.00  0.00  0.06  0.07  0.00    4.40   66.50    0.23    0.42    1.05
 2003 172   116   116     3     2.2   73.4       3   72.6    0.8   0.4   6.7  17.6  26.1   6.1   1.1   0.6   0.8   0.8   0.0   0.1   0.2   0.1   0.0   0.0  0.00  0.00  0.06  0.06  0.00    4.58   66.68    0.26    0.42    1.06
 2003 173   117   116     3     2.2   73.6       3   72.7    0.8   0.5   6.4  16.0  25.7   7.8   1.1   0.6   0.8   0.8   0.0   0.1   0.2   0.1   0.0   0.0  0.00  0.00  0.06  0.06  0.00    4.76   66.89    0.28    0.42    1.06
 2003 174   118   116     3     2.2   73.6       3   72.8    0.8   0.6   6.1  15.2  26.4   8.2   1.1   0.6   0.8   0.8   0.0   0.0   0.2   0.1   0.0   0.0  0.00  0.00  0.05  0.06  0.00    4.93   67.07    0.30    0.42    1.06
 2003 175   119   116     3     2.2   72.7       3   71.9    0.8   0.6   5.9  14.8  26.1   8.3   1.1   0.6   0.8   0.8   0.0   0.0   0.2   0.1   0.0   0.0  0.00  0.00  0.05  0.06  0.00    5.08   67.24    0.30    0.42    1.07
 2003 176   120   116     3     2.2   71.7       3   71.0    0.8   0.6   5.8  14.4  25.8   8.3   1.1   0.6   0.8   0.8   0.0   0.0   0.2   0.1   0.0   0.0  0.00  0.00  0.05  0.06  0.00    5.24   67.40    0.30    0.42    1.07
 2003 177   121   116     3     2.2   70.5       4   69.8    0.7   0.7   5.6  13.9  25.5   8.2   1.1   0.6   0.8   0.8   0.0   0.0   0.2   0.1   0.0   0.0  0.00  0.00  0.05  0.06  0.00    5.37   67.57    0.30    0.42    1.07
 2003 178   122   116     3     2.2   69.4       4   68.6    0.7   0.7   5.4  13.5  25.1   8.1   1.1   0.6   0.8   0.8   0.0   0.0   0.2   0.1   0.0   0.0  0.00  0.00  0.05  0.06  0.00    5.49   67.71    0.30    0.42    1.07
 2003 179   123   116     3     2.2   68.2       4   67.5    0.7   0.7   5.2  13.1  24.6   8.1   1.1   0.6   0.8   0.8   0.0   0.0   0.1   0.1   0.0   0.0  0.00  0.00  0.05  0.06  0.00    5.59   67.83    0.30    0.42    1.07
 2003 180   124   116     3     2.2   68.2       4   67.6    0.7   0.8   5.3  13.2  24.5   8.1   1.1   0.6   0.8   0.8   0.0   0.0   0.1   0.1   0.0   0.0  0.00  0.00  0.05  0.06  0.00    5.68   67.94    0.30    0.42    1.07
 2003 181   125   116     3     2.2   67.7       4   67.1    0.7   0.3   5.5  13.2  24.2   8.0   1.1   0.6   0.8   0.8   0.0   0.0   0.1   0.1   0.0   0.0  0.00  0.00  0.04  0.06  0.00    5.79   68.04    0.30    0.42    1.07
 2003 182   126   116     3     2.2   66.7       4   66.0    0.7   0.2   3.6  14.7  23.7   7.9   1.1   0.6   0.8   0.8   0.0   0.1   0.2   0.1   0.0   0.0  0.00  0.00  0.04  0.06  0.00    5.97   68.18    0.30    0.42    1.08
 2003 183   127   116     3     2.2   66.9       4   66.1    0.8   0.2   3.2  14.3  24.9   7.9   1.1   0.6   0.8   0.8   0.0   0.1   0.2   0.1   0.0   0.0  0.00  0.00  0.04  0.05  0.00    6.13   68.29    0.30    0.42    1.08
 2003 184   128   116     3     2.2   65.7       4   65.0    0.8   0.2   1.7   9.6  28.3   9.9   1.1   0.6   0.8   0.8   0.0   0.1   0.2   0.1   0.0   0.0  0.00  0.00  0.04  0.05  0.00    6.30   68.44    0.30    0.42    1.08
 2003 185   129   116     3     2.2   64.2       4   63.4    0.8   0.2   1.4   8.1  26.1  11.6   1.1   0.6   0.8   0.8   0.0   0.1   0.2   0.1   0.0   0.0  0.00  0.00  0.04  0.05  0.00    6.46   68.56    0.30    0.42    1.09
 2003 186   130   116     3     2.2   63.7       4   62.9    0.8   0.3   1.3   7.1  24.1  13.3   1.1   0.6   0.8   0.8   0.0   0.0   0.2   0.1   0.0   0.0  0.00  0.00  0.04  0.05  0.00    6.63   68.73    0.30    0.42    1.09
 2003 187   131   116     3     2.2   62.1       4   61.3    0.8   0.4   1.2   6.0  21.8  14.4   1.3   0.6   0.8   0.8   0.0   0.1   0.2   0.1   0.0   0.0  0.00  0.00  0.04  0.05  0.00    6.83   68.92    0.31    0.42    1.09
 2003 188   132   116     3     2.2   62.0       4   61.3    0.8   0.5   1.2   5.2  17.9  13.6   4.4   0.6   0.8   0.8   0.0   0.0   0.2   0.1   0.1   0.0  0.00  0.00  0.04  0.05  0.00    7.03   69.16    0.32    0.42    1.10
 2003 189   133   116     3     2.2   61.2       4   60.5    0.8   0.5   1.1   4.6  15.1  13.1   5.9   1.1   0.8   0.8   0.0   0.0   0.2   0.1   0.1   0.0  0.00  0.00  0.04  0.05  0.00    7.23   69.37    0.36    0.42    1.10
 2003 190   134   116     3     2.2   59.4       4   58.7    0.7   0.5   1.0   3.9  13.1  12.7   6.6   1.3   0.8   0.8   0.0   0.0   0.2   0.1   0.1   0.0  0.00  0.00  0.04  0.05  0.00    7.42   69.58    0.38    0.42    1.10
 2003 191   135   116     3     2.2   58.7       5   58.0    0.7   0.6   1.0   3.6  12.3  12.7   6.7   1.4   0.9   0.8   0.0   0.0   0.2   0.1   0.1   0.0  0.00  0.00  0.03  0.05  0.00    7.62   69.78    0.39    0.42    1.10
 2003 192   136   116     3     2.2   57.6       5   56.9    0.7   0.6   1.0   3.3  11.8  12.5   6.7   1.4   0.9   0.8   0.0   0.0   0.2   0.1   0.1   0.0  0.00  0.00  0.03  0.05  0.00    7.82   69.98    0.39    0.42    1.11
 2003 193   137   116     3     2.2   57.0       5   56.3    0.7   0.6   1.0   3.2  11.6  12.3   6.7   1.4   0.9   0.8   0.0   0.0   0.1   0.1   0.1   0.0  0.00  0.00  0.03  0.05  0.00    7.99   70.18    0.39    0.42    1.11
 2003 194   138   116     3     2.2   55.8       5   55.1    0.7   0.7   1.0   3.0  11.3  12.1   6.7   1.4   0.9   0.8   0.0   0.0   0.1   0.1   0.1   0.0  0.00  0.00  0.03  0.05  0.00    8.16   70.36    0.39    0.42    1.11
 2003 195   139   116     3     2.2   55.3       5   54.6    0.7   0.7   1.0   3.0  11.1  11.9   6.6   1.4   0.9   0.8   0.0   0.0   0.1   0.1   0.1   0.0  0.00  0.00  0.03  0.05  0.00    8.30   70.53    0.39    0.42    1.11
 2003 196   140   116     3     2.2   54.5       5   53.9    0.6   0.7   0.9   2.9  10.9  11.7   6.6   1.3   0.9   0.8   0.0   0.0   0.1   0.1   0.1   0.0  0.00  0.00  0.03  0.04  0.00    8.44   70.67    0.39    0.42    1.11
 2003 197   141   116     3     2.2   52.8       5   52.2    0.6   0.7   0.8   2.6  10.3  11.3   6.5   1.3   0.9   0.8   0.0   0.0   0.1   0.1   0.1   0.0  0.00  0.00  0.03  0.04  0.00    8.56   70.80    0.39    0.42    1.11
 2003 198   142   116     3     2.2   51.6       5   51.0    0.6   0.1   1.1   2.5   9.9  10.9   6.5   1.3   0.9   0.8   0.0   0.0   0.1   0.1   0.1   0.0  0.01  0.00  0.03  0.04  0.00    8.67   70.92    0.39    0.42    1.12
 2003 199   143   116     3     2.2   51.3       5   50.6    0.7   0.1   1.0   2.6   9.8  10.8   6.5   1.3   0.9   0.8   0.0   0.1   0.2   0.1   0.1   0.0  0.01  0.00  0.03  0.04  0.00    8.88   71.06    0.39    0.42    1.12
 2003 200   144   116     3     2.2   49.7       5   49.0    0.7   0.3   0.9   2.4   9.4  10.3   6.4   1.3   0.9   0.8   0.0   0.0   0.2   0.1   0.1   0.0  0.01  0.00  0.03  0.04  0.00    9.12   71.32    0.39    0.42    1.12
 2003 201   145   116     3     2.2   49.1       5   48.4    0.7   0.3   0.9   2.3   9.2  10.1   6.4   1.3   0.9   0.8   0.0   0.1   0.2   0.1   0.0   0.0  0.01  0.00  0.03  0.04  0.00    9.37   71.53    0.39    0.42    1.12
 2003 202   146   116     3     2.2   48.5       6   47.8    0.7   0.5   0.9   2.3   9.0   9.9   6.3   1.3   0.9   0.8   0.0   0.0   0.2   0.1   0.0   0.0  0.01  0.00  0.03  0.04  0.00    9.60   71.79    0.39    0.42    1.12
